data_image0
_chemical_formula_structural       O2880Si1440
_chemical_formula_sum              "O2880 Si1440"
_cell_length_a       44.6274
_cell_length_b       44.627
_cell_length_c       44.6271
_cell_angle_alpha    89.9993
_cell_angle_beta     90
_cell_angle_gamma    90.0005

_space_group_name_H-M_alt    "P 1"
_space_group_IT_number       1

loop_
  _space_group_symop_operation_xyz
  'x, y, z'

loop_
  _atom_site_type_symbol
  _atom_site_label
  _atom_site_symmetry_multiplicity
  _atom_site_fract_x
  _atom_site_fract_y
  _atom_site_fract_z
  _atom_site_occupancy
  O   O1        1.0  0.83273  0.61071  0.54417  1.0000
  O   O2        1.0  0.54415  0.83274  0.61071  1.0000
  O   O3        1.0  0.61072  0.54416  0.83274  1.0000
  O   O4        1.0  0.83273  0.54416  0.61071  1.0000
  O   O5        1.0  0.61071  0.83274  0.54417  1.0000
  O   O6        1.0  0.54415  0.61072  0.83274  1.0000
  O   O7        1.0  0.83273  0.38929  0.45585  1.0000
  O   O8        1.0  0.54415  0.16726  0.38929  1.0000
  O   O9        1.0  0.61071  0.45584  0.16726  1.0000
  O   O10       1.0  0.83273  0.45584  0.38929  1.0000
  O   O11       1.0  0.61071  0.16726  0.45585  1.0000
  O   O12       1.0  0.54415  0.38929  0.16727  1.0000
  O   O13       1.0  0.16726  0.61071  0.45585  1.0000
  O   O14       1.0  0.45583  0.83274  0.38928  1.0000
  O   O15       1.0  0.38930  0.54416  0.16727  1.0000
  O   O16       1.0  0.16726  0.54416  0.38928  1.0000
  O   O17       1.0  0.38929  0.83273  0.45585  1.0000
  O   O18       1.0  0.45583  0.61071  0.16727  1.0000
  O   O19       1.0  0.16726  0.38929  0.54417  1.0000
  O   O20       1.0  0.45584  0.16726  0.61071  1.0000
  O   O21       1.0  0.38929  0.45584  0.83274  1.0000
  O   O22       1.0  0.16726  0.45585  0.61071  1.0000
  O   O23       1.0  0.38929  0.16727  0.54417  1.0000
  O   O24       1.0  0.45583  0.38928  0.83274  1.0000
  O   O25       1.0  0.16727  0.38929  0.45583  1.0000
  O   O26       1.0  0.45585  0.16726  0.38929  1.0000
  O   O27       1.0  0.38928  0.45584  0.16726  1.0000
  O   O28       1.0  0.16727  0.45584  0.38929  1.0000
  O   O29       1.0  0.38929  0.16726  0.45583  1.0000
  O   O30       1.0  0.45585  0.38928  0.16726  1.0000
  O   O31       1.0  0.16727  0.61071  0.54415  1.0000
  O   O32       1.0  0.45585  0.83274  0.61071  1.0000
  O   O33       1.0  0.38929  0.54416  0.83274  1.0000
  O   O34       1.0  0.16727  0.54416  0.61071  1.0000
  O   O35       1.0  0.38929  0.83274  0.54415  1.0000
  O   O36       1.0  0.45585  0.61071  0.83273  1.0000
  O   O37       1.0  0.83274  0.38929  0.54415  1.0000
  O   O38       1.0  0.54417  0.16726  0.61072  1.0000
  O   O39       1.0  0.61070  0.45584  0.83273  1.0000
  O   O40       1.0  0.83274  0.45584  0.61072  1.0000
  O   O41       1.0  0.61071  0.16726  0.54415  1.0000
  O   O42       1.0  0.54417  0.38929  0.83273  1.0000
  O   O43       1.0  0.83274  0.61071  0.45583  1.0000
  O   O44       1.0  0.54417  0.83274  0.38929  1.0000
  O   O45       1.0  0.61071  0.54416  0.16726  1.0000
  O   O46       1.0  0.83274  0.54415  0.38929  1.0000
  O   O47       1.0  0.61071  0.83273  0.45583  1.0000
  O   O48       1.0  0.54417  0.61072  0.16726  1.0000
  O   O49       1.0  0.33273  0.11071  0.04417  1.0000
  O   O50       1.0  0.04415  0.33274  0.11071  1.0000
  O   O51       1.0  0.11072  0.04416  0.33274  1.0000
  O   O52       1.0  0.33273  0.04416  0.11071  1.0000
  O   O53       1.0  0.11071  0.33274  0.04417  1.0000
  O   O54       1.0  0.04415  0.11072  0.33274  1.0000
  O   O55       1.0  0.33273  0.88929  0.95585  1.0000
  O   O56       1.0  0.04415  0.66726  0.88929  1.0000
  O   O57       1.0  0.11071  0.95584  0.66726  1.0000
  O   O58       1.0  0.33273  0.95584  0.88929  1.0000
  O   O59       1.0  0.11071  0.66726  0.95585  1.0000
  O   O60       1.0  0.04415  0.88929  0.66727  1.0000
  O   O61       1.0  0.66726  0.11071  0.95585  1.0000
  O   O62       1.0  0.95583  0.33274  0.88928  1.0000
  O   O63       1.0  0.88930  0.04416  0.66727  1.0000
  O   O64       1.0  0.66726  0.04416  0.88928  1.0000
  O   O65       1.0  0.88929  0.33273  0.95585  1.0000
  O   O66       1.0  0.95583  0.11071  0.66727  1.0000
  O   O67       1.0  0.66726  0.88929  0.04417  1.0000
  O   O68       1.0  0.95584  0.66726  0.11071  1.0000
  O   O69       1.0  0.88929  0.95584  0.33274  1.0000
  O   O70       1.0  0.66726  0.95585  0.11071  1.0000
  O   O71       1.0  0.88929  0.66727  0.04417  1.0000
  O   O72       1.0  0.95583  0.88928  0.33274  1.0000
  O   O73       1.0  0.66727  0.88929  0.95583  1.0000
  O   O74       1.0  0.95585  0.66727  0.88929  1.0000
  O   O75       1.0  0.88928  0.95584  0.66726  1.0000
  O   O76       1.0  0.66727  0.95584  0.88929  1.0000
  O   O77       1.0  0.88929  0.66726  0.95583  1.0000
  O   O78       1.0  0.95585  0.88928  0.66726  1.0000
  O   O79       1.0  0.66727  0.11071  0.04415  1.0000
  O   O80       1.0  0.95585  0.33274  0.11071  1.0000
  O   O81       1.0  0.88929  0.04416  0.33274  1.0000
  O   O82       1.0  0.66727  0.04415  0.11071  1.0000
  O   O83       1.0  0.88929  0.33274  0.04415  1.0000
  O   O84       1.0  0.95585  0.11071  0.33273  1.0000
  O   O85       1.0  0.33274  0.88929  0.04415  1.0000
  O   O86       1.0  0.04417  0.66726  0.11072  1.0000
  O   O87       1.0  0.11070  0.95584  0.33273  1.0000
  O   O88       1.0  0.33274  0.95584  0.11072  1.0000
  O   O89       1.0  0.11071  0.66726  0.04415  1.0000
  O   O90       1.0  0.04417  0.88929  0.33274  1.0000
  O   O91       1.0  0.33274  0.11071  0.95583  1.0000
  O   O92       1.0  0.04416  0.33274  0.88929  1.0000
  O   O93       1.0  0.11071  0.04416  0.66726  1.0000
  O   O94       1.0  0.33274  0.04415  0.88929  1.0000
  O   O95       1.0  0.11071  0.33273  0.95583  1.0000
  O   O96       1.0  0.04417  0.11072  0.66726  1.0000
  O   O97       1.0  0.77768  0.63072  0.53996  1.0000
  O   O98       1.0  0.53994  0.77768  0.63071  1.0000
  O   O99       1.0  0.63070  0.53995  0.77768  1.0000
  O   O100      1.0  0.77768  0.53996  0.63072  1.0000
  O   O101      1.0  0.63071  0.77768  0.53995  1.0000
  O   O102      1.0  0.53994  0.63070  0.77768  1.0000
  O   O103      1.0  0.77768  0.36928  0.46004  1.0000
  O   O104      1.0  0.53995  0.22232  0.36928  1.0000
  O   O105      1.0  0.63072  0.46004  0.22232  1.0000
  O   O106      1.0  0.77768  0.46004  0.36929  1.0000
  O   O107      1.0  0.63072  0.22232  0.46005  1.0000
  O   O108      1.0  0.53996  0.36928  0.22232  1.0000
  O   O109      1.0  0.22232  0.63071  0.46005  1.0000
  O   O110      1.0  0.46005  0.77768  0.36929  1.0000
  O   O111      1.0  0.36929  0.53996  0.22232  1.0000
  O   O112      1.0  0.22232  0.53995  0.36930  1.0000
  O   O113      1.0  0.36928  0.77768  0.46005  1.0000
  O   O114      1.0  0.46004  0.63072  0.22232  1.0000
  O   O115      1.0  0.22232  0.36930  0.53994  1.0000
  O   O116      1.0  0.46005  0.22232  0.63071  1.0000
  O   O117      1.0  0.36930  0.46005  0.77768  1.0000
  O   O118      1.0  0.22232  0.46005  0.63070  1.0000
  O   O119      1.0  0.36929  0.22232  0.53994  1.0000
  O   O120      1.0  0.46006  0.36930  0.77768  1.0000
  O   O121      1.0  0.22232  0.36928  0.46004  1.0000
  O   O122      1.0  0.46006  0.22232  0.36929  1.0000
  O   O123      1.0  0.36930  0.46005  0.22232  1.0000
  O   O124      1.0  0.22232  0.46004  0.36928  1.0000
  O   O125      1.0  0.36929  0.22232  0.46005  1.0000
  O   O126      1.0  0.46006  0.36930  0.22232  1.0000
  O   O127      1.0  0.22232  0.63072  0.53996  1.0000
  O   O128      1.0  0.46005  0.77768  0.63072  1.0000
  O   O129      1.0  0.36928  0.53996  0.77768  1.0000
  O   O130      1.0  0.22232  0.53996  0.63071  1.0000
  O   O131      1.0  0.36928  0.77768  0.53995  1.0000
  O   O132      1.0  0.46004  0.63072  0.77768  1.0000
  O   O133      1.0  0.77768  0.36929  0.53995  1.0000
  O   O134      1.0  0.53995  0.22232  0.63071  1.0000
  O   O135      1.0  0.63071  0.46004  0.77768  1.0000
  O   O136      1.0  0.77768  0.46005  0.63070  1.0000
  O   O137      1.0  0.63072  0.22232  0.53995  1.0000
  O   O138      1.0  0.53995  0.36928  0.77768  1.0000
  O   O139      1.0  0.77768  0.63070  0.46006  1.0000
  O   O140      1.0  0.53995  0.77768  0.36929  1.0000
  O   O141      1.0  0.63070  0.53995  0.22232  1.0000
  O   O142      1.0  0.77768  0.53995  0.36930  1.0000
  O   O143      1.0  0.63071  0.77768  0.46006  1.0000
  O   O144      1.0  0.53994  0.63070  0.22232  1.0000
  O   O145      1.0  0.27768  0.13072  0.03995  1.0000
  O   O146      1.0  0.03994  0.27768  0.13071  1.0000
  O   O147      1.0  0.13070  0.03995  0.27768  1.0000
  O   O148      1.0  0.27768  0.03996  0.13072  1.0000
  O   O149      1.0  0.13071  0.27768  0.03995  1.0000
  O   O150      1.0  0.03994  0.13070  0.27768  1.0000
  O   O151      1.0  0.27768  0.86928  0.96004  1.0000
  O   O152      1.0  0.03995  0.72232  0.86928  1.0000
  O   O153      1.0  0.13072  0.96004  0.72232  1.0000
  O   O154      1.0  0.27768  0.96004  0.86928  1.0000
  O   O155      1.0  0.13072  0.72232  0.96005  1.0000
  O   O156      1.0  0.03996  0.86928  0.72232  1.0000
  O   O157      1.0  0.72232  0.13071  0.96005  1.0000
  O   O158      1.0  0.96006  0.27768  0.86929  1.0000
  O   O159      1.0  0.86929  0.03996  0.72232  1.0000
  O   O160      1.0  0.72232  0.03995  0.86930  1.0000
  O   O161      1.0  0.86928  0.27768  0.96005  1.0000
  O   O162      1.0  0.96004  0.13072  0.72232  1.0000
  O   O163      1.0  0.72232  0.86930  0.03994  1.0000
  O   O164      1.0  0.96005  0.72232  0.13071  1.0000
  O   O165      1.0  0.86930  0.96005  0.27768  1.0000
  O   O166      1.0  0.72232  0.96005  0.13070  1.0000
  O   O167      1.0  0.86929  0.72232  0.03994  1.0000
  O   O168      1.0  0.96006  0.86930  0.27768  1.0000
  O   O169      1.0  0.72232  0.86928  0.96004  1.0000
  O   O170      1.0  0.96006  0.72232  0.86929  1.0000
  O   O171      1.0  0.86930  0.96005  0.72232  1.0000
  O   O172      1.0  0.72232  0.96004  0.86928  1.0000
  O   O173      1.0  0.86929  0.72232  0.96005  1.0000
  O   O174      1.0  0.96006  0.86930  0.72232  1.0000
  O   O175      1.0  0.72232  0.13072  0.03996  1.0000
  O   O176      1.0  0.96005  0.27768  0.13072  1.0000
  O   O177      1.0  0.86928  0.03996  0.27768  1.0000
  O   O178      1.0  0.72232  0.03996  0.13072  1.0000
  O   O179      1.0  0.86928  0.27768  0.03995  1.0000
  O   O180      1.0  0.96004  0.13072  0.27768  1.0000
  O   O181      1.0  0.27768  0.86929  0.03995  1.0000
  O   O182      1.0  0.03995  0.72232  0.13071  1.0000
  O   O183      1.0  0.13071  0.96004  0.27768  1.0000
  O   O184      1.0  0.27768  0.96005  0.13070  1.0000
  O   O185      1.0  0.13072  0.72232  0.03995  1.0000
  O   O186      1.0  0.03996  0.86928  0.27768  1.0000
  O   O187      1.0  0.27768  0.13070  0.96006  1.0000
  O   O188      1.0  0.03995  0.27768  0.86929  1.0000
  O   O189      1.0  0.13070  0.03995  0.72232  1.0000
  O   O190      1.0  0.27768  0.03995  0.86930  1.0000
  O   O191      1.0  0.13071  0.27768  0.96006  1.0000
  O   O192      1.0  0.03994  0.13070  0.72232  1.0000
  O   O193      1.0  0.72252  0.61101  0.54418  1.0000
  O   O194      1.0  0.54419  0.72252  0.61102  1.0000
  O   O195      1.0  0.61102  0.54419  0.72251  1.0000
  O   O196      1.0  0.72252  0.54418  0.61101  1.0000
  O   O197      1.0  0.61102  0.72252  0.54418  1.0000
  O   O198      1.0  0.54419  0.61102  0.72252  1.0000
  O   O199      1.0  0.72253  0.38898  0.45581  1.0000
  O   O200      1.0  0.54419  0.27748  0.38898  1.0000
  O   O201      1.0  0.61101  0.45582  0.27748  1.0000
  O   O202      1.0  0.72252  0.45582  0.38899  1.0000
  O   O203      1.0  0.61102  0.27748  0.45581  1.0000
  O   O204      1.0  0.54420  0.38899  0.27748  1.0000
  O   O205      1.0  0.27749  0.61103  0.45580  1.0000
  O   O206      1.0  0.45582  0.72252  0.38898  1.0000
  O   O207      1.0  0.38899  0.54418  0.27748  1.0000
  O   O208      1.0  0.27749  0.54418  0.38898  1.0000
  O   O209      1.0  0.38898  0.72252  0.45581  1.0000
  O   O210      1.0  0.45582  0.61101  0.27748  1.0000
  O   O211      1.0  0.27749  0.38898  0.54418  1.0000
  O   O212      1.0  0.45583  0.27748  0.61102  1.0000
  O   O213      1.0  0.38898  0.45582  0.72252  1.0000
  O   O214      1.0  0.27749  0.45582  0.61102  1.0000
  O   O215      1.0  0.38898  0.27749  0.54418  1.0000
  O   O216      1.0  0.45582  0.38898  0.72251  1.0000
  O   O217      1.0  0.27748  0.38899  0.45582  1.0000
  O   O218      1.0  0.45581  0.27748  0.38898  1.0000
  O   O219      1.0  0.38898  0.45581  0.27749  1.0000
  O   O220      1.0  0.27748  0.45582  0.38899  1.0000
  O   O221      1.0  0.38898  0.27748  0.45582  1.0000
  O   O222      1.0  0.45581  0.38897  0.27748  1.0000
  O   O223      1.0  0.27748  0.61102  0.54419  1.0000
  O   O224      1.0  0.45581  0.72252  0.61102  1.0000
  O   O225      1.0  0.38899  0.54418  0.72252  1.0000
  O   O226      1.0  0.27748  0.54418  0.61101  1.0000
  O   O227      1.0  0.38898  0.72252  0.54419  1.0000
  O   O228      1.0  0.45581  0.61102  0.72252  1.0000
  O   O229      1.0  0.72252  0.38897  0.54419  1.0000
  O   O230      1.0  0.54418  0.27748  0.61102  1.0000
  O   O231      1.0  0.61101  0.45582  0.72252  1.0000
  O   O232      1.0  0.72251  0.45582  0.61102  1.0000
  O   O233      1.0  0.61102  0.27748  0.54419  1.0000
  O   O234      1.0  0.54418  0.38899  0.72252  1.0000
  O   O235      1.0  0.72251  0.61102  0.45582  1.0000
  O   O236      1.0  0.54417  0.72252  0.38898  1.0000
  O   O237      1.0  0.61102  0.54418  0.27748  1.0000
  O   O238      1.0  0.72251  0.54418  0.38898  1.0000
  O   O239      1.0  0.61102  0.72252  0.45582  1.0000
  O   O240      1.0  0.54418  0.61102  0.27749  1.0000
  O   O241      1.0  0.22252  0.11101  0.04418  1.0000
  O   O242      1.0  0.04419  0.22252  0.11102  1.0000
  O   O243      1.0  0.11102  0.04419  0.22251  1.0000
  O   O244      1.0  0.22252  0.04418  0.11101  1.0000
  O   O245      1.0  0.11102  0.22252  0.04418  1.0000
  O   O246      1.0  0.04420  0.11103  0.22251  1.0000
  O   O247      1.0  0.22252  0.88898  0.95581  1.0000
  O   O248      1.0  0.04419  0.77748  0.88898  1.0000
  O   O249      1.0  0.11101  0.95582  0.77748  1.0000
  O   O250      1.0  0.22252  0.95582  0.88899  1.0000
  O   O251      1.0  0.11102  0.77748  0.95581  1.0000
  O   O252      1.0  0.04420  0.88899  0.77748  1.0000
  O   O253      1.0  0.77749  0.11103  0.95580  1.0000
  O   O254      1.0  0.95582  0.22252  0.88898  1.0000
  O   O255      1.0  0.88899  0.04418  0.77748  1.0000
  O   O256      1.0  0.77749  0.04418  0.88898  1.0000
  O   O257      1.0  0.88898  0.22252  0.95581  1.0000
  O   O258      1.0  0.95582  0.11101  0.77748  1.0000
  O   O259      1.0  0.77749  0.88898  0.04418  1.0000
  O   O260      1.0  0.95583  0.77748  0.11102  1.0000
  O   O261      1.0  0.88898  0.95582  0.22252  1.0000
  O   O262      1.0  0.77749  0.95582  0.11102  1.0000
  O   O263      1.0  0.88898  0.77749  0.04418  1.0000
  O   O264      1.0  0.95582  0.88898  0.22251  1.0000
  O   O265      1.0  0.77748  0.88899  0.95582  1.0000
  O   O266      1.0  0.95581  0.77748  0.88898  1.0000
  O   O267      1.0  0.88898  0.95581  0.77749  1.0000
  O   O268      1.0  0.77748  0.95582  0.88898  1.0000
  O   O269      1.0  0.88898  0.77748  0.95582  1.0000
  O   O270      1.0  0.95581  0.88897  0.77749  1.0000
  O   O271      1.0  0.77748  0.11102  0.04419  1.0000
  O   O272      1.0  0.95581  0.22252  0.11102  1.0000
  O   O273      1.0  0.88899  0.04418  0.22252  1.0000
  O   O274      1.0  0.77748  0.04418  0.11101  1.0000
  O   O275      1.0  0.88898  0.22252  0.04419  1.0000
  O   O276      1.0  0.95580  0.11102  0.22252  1.0000
  O   O277      1.0  0.22252  0.88897  0.04419  1.0000
  O   O278      1.0  0.04418  0.77748  0.11102  1.0000
  O   O279      1.0  0.11101  0.95582  0.22252  1.0000
  O   O280      1.0  0.22251  0.95582  0.11102  1.0000
  O   O281      1.0  0.11102  0.77748  0.04419  1.0000
  O   O282      1.0  0.04418  0.88899  0.22252  1.0000
  O   O283      1.0  0.22251  0.11102  0.95582  1.0000
  O   O284      1.0  0.04417  0.22252  0.88898  1.0000
  O   O285      1.0  0.11102  0.04418  0.77748  1.0000
  O   O286      1.0  0.22251  0.04418  0.88898  1.0000
  O   O287      1.0  0.11102  0.22251  0.95583  1.0000
  O   O288      1.0  0.04418  0.11102  0.77749  1.0000
  O   O289      1.0  0.66688  0.59266  0.53951  1.0000
  O   O290      1.0  0.53951  0.66689  0.59265  1.0000
  O   O291      1.0  0.59265  0.53953  0.66688  1.0000
  O   O292      1.0  0.66688  0.53951  0.59266  1.0000
  O   O293      1.0  0.59265  0.66688  0.53952  1.0000
  O   O294      1.0  0.53952  0.59265  0.66689  1.0000
  O   O295      1.0  0.66689  0.40734  0.46049  1.0000
  O   O296      1.0  0.53951  0.33311  0.40734  1.0000
  O   O297      1.0  0.59266  0.46048  0.33311  1.0000
  O   O298      1.0  0.66688  0.46048  0.40734  1.0000
  O   O299      1.0  0.59266  0.33311  0.46049  1.0000
  O   O300      1.0  0.53951  0.40734  0.33311  1.0000
  O   O301      1.0  0.33311  0.59265  0.46048  1.0000
  O   O302      1.0  0.46048  0.66688  0.40734  1.0000
  O   O303      1.0  0.40734  0.53951  0.33312  1.0000
  O   O304      1.0  0.33312  0.53953  0.40735  1.0000
  O   O305      1.0  0.40735  0.66689  0.46049  1.0000
  O   O306      1.0  0.46048  0.59266  0.33312  1.0000
  O   O307      1.0  0.33312  0.40735  0.53952  1.0000
  O   O308      1.0  0.46049  0.33312  0.59265  1.0000
  O   O309      1.0  0.40735  0.46047  0.66688  1.0000
  O   O310      1.0  0.33312  0.46048  0.59265  1.0000
  O   O311      1.0  0.40735  0.33312  0.53951  1.0000
  O   O312      1.0  0.46047  0.40735  0.66688  1.0000
  O   O313      1.0  0.33312  0.40734  0.46049  1.0000
  O   O314      1.0  0.46049  0.33311  0.40735  1.0000
  O   O315      1.0  0.40735  0.46047  0.33312  1.0000
  O   O316      1.0  0.33312  0.46049  0.40734  1.0000
  O   O317      1.0  0.40735  0.33312  0.46048  1.0000
  O   O318      1.0  0.46048  0.40735  0.33311  1.0000
  O   O319      1.0  0.33311  0.59266  0.53951  1.0000
  O   O320      1.0  0.46049  0.66689  0.59266  1.0000
  O   O321      1.0  0.40734  0.53952  0.66688  1.0000
  O   O322      1.0  0.33312  0.53952  0.59266  1.0000
  O   O323      1.0  0.40734  0.66689  0.53951  1.0000
  O   O324      1.0  0.46049  0.59266  0.66689  1.0000
  O   O325      1.0  0.66689  0.40735  0.53952  1.0000
  O   O326      1.0  0.53952  0.33312  0.59266  1.0000
  O   O327      1.0  0.59266  0.46049  0.66688  1.0000
  O   O328      1.0  0.66688  0.46047  0.59265  1.0000
  O   O329      1.0  0.59265  0.33311  0.53951  1.0000
  O   O330      1.0  0.53952  0.40734  0.66688  1.0000
  O   O331      1.0  0.66688  0.59265  0.46048  1.0000
  O   O332      1.0  0.53951  0.66688  0.40735  1.0000
  O   O333      1.0  0.59265  0.53953  0.33312  1.0000
  O   O334      1.0  0.66688  0.53952  0.40735  1.0000
  O   O335      1.0  0.59265  0.66688  0.46049  1.0000
  O   O336      1.0  0.53953  0.59265  0.33312  1.0000
  O   O337      1.0  0.16688  0.09266  0.03951  1.0000
  O   O338      1.0  0.03951  0.16689  0.09265  1.0000
  O   O339      1.0  0.09265  0.03953  0.16688  1.0000
  O   O340      1.0  0.16688  0.03951  0.09266  1.0000
  O   O341      1.0  0.09265  0.16688  0.03952  1.0000
  O   O342      1.0  0.03952  0.09265  0.16689  1.0000
  O   O343      1.0  0.16689  0.90734  0.96049  1.0000
  O   O344      1.0  0.03951  0.83311  0.90734  1.0000
  O   O345      1.0  0.09266  0.96048  0.83311  1.0000
  O   O346      1.0  0.16688  0.96048  0.90734  1.0000
  O   O347      1.0  0.09266  0.83311  0.96049  1.0000
  O   O348      1.0  0.03951  0.90734  0.83311  1.0000
  O   O349      1.0  0.83311  0.09265  0.96048  1.0000
  O   O350      1.0  0.96048  0.16688  0.90734  1.0000
  O   O351      1.0  0.90734  0.03951  0.83312  1.0000
  O   O352      1.0  0.83312  0.03953  0.90735  1.0000
  O   O353      1.0  0.90735  0.16689  0.96049  1.0000
  O   O354      1.0  0.96048  0.09266  0.83312  1.0000
  O   O355      1.0  0.83312  0.90735  0.03952  1.0000
  O   O356      1.0  0.96049  0.83312  0.09265  1.0000
  O   O357      1.0  0.90735  0.96047  0.16688  1.0000
  O   O358      1.0  0.83312  0.96048  0.09265  1.0000
  O   O359      1.0  0.90735  0.83312  0.03951  1.0000
  O   O360      1.0  0.96047  0.90735  0.16688  1.0000
  O   O361      1.0  0.83312  0.90734  0.96049  1.0000
  O   O362      1.0  0.96049  0.83311  0.90735  1.0000
  O   O363      1.0  0.90735  0.96047  0.83312  1.0000
  O   O364      1.0  0.83312  0.96049  0.90734  1.0000
  O   O365      1.0  0.90735  0.83312  0.96048  1.0000
  O   O366      1.0  0.96048  0.90735  0.83311  1.0000
  O   O367      1.0  0.83311  0.09266  0.03951  1.0000
  O   O368      1.0  0.96049  0.16689  0.09266  1.0000
  O   O369      1.0  0.90734  0.03952  0.16688  1.0000
  O   O370      1.0  0.83312  0.03952  0.09266  1.0000
  O   O371      1.0  0.90734  0.16689  0.03951  1.0000
  O   O372      1.0  0.96049  0.09266  0.16689  1.0000
  O   O373      1.0  0.16689  0.90735  0.03952  1.0000
  O   O374      1.0  0.03952  0.83312  0.09266  1.0000
  O   O375      1.0  0.09266  0.96048  0.16688  1.0000
  O   O376      1.0  0.16688  0.96047  0.09265  1.0000
  O   O377      1.0  0.09265  0.83311  0.03951  1.0000
  O   O378      1.0  0.03952  0.90734  0.16688  1.0000
  O   O379      1.0  0.16688  0.09265  0.96048  1.0000
  O   O380      1.0  0.03951  0.16688  0.90735  1.0000
  O   O381      1.0  0.09265  0.03953  0.83312  1.0000
  O   O382      1.0  0.16688  0.03952  0.90735  1.0000
  O   O383      1.0  0.09265  0.16688  0.96049  1.0000
  O   O384      1.0  0.03953  0.09265  0.83312  1.0000
  O   O385      1.0  0.11137  0.59299  0.53952  1.0000
  O   O386      1.0  0.53953  0.11137  0.59298  1.0000
  O   O387      1.0  0.59297  0.53954  0.11137  1.0000
  O   O388      1.0  0.11137  0.53953  0.59299  1.0000
  O   O389      1.0  0.59298  0.11137  0.53952  1.0000
  O   O390      1.0  0.53954  0.59297  0.11137  1.0000
  O   O391      1.0  0.11137  0.40701  0.46048  1.0000
  O   O392      1.0  0.53952  0.88863  0.40702  1.0000
  O   O393      1.0  0.59299  0.46047  0.88863  1.0000
  O   O394      1.0  0.11137  0.46047  0.40701  1.0000
  O   O395      1.0  0.59298  0.88863  0.46048  1.0000
  O   O396      1.0  0.53952  0.40701  0.88863  1.0000
  O   O397      1.0  0.88863  0.59297  0.46047  1.0000
  O   O398      1.0  0.46047  0.11137  0.40702  1.0000
  O   O399      1.0  0.40701  0.53953  0.88863  1.0000
  O   O400      1.0  0.88863  0.53954  0.40703  1.0000
  O   O401      1.0  0.40702  0.11137  0.46048  1.0000
  O   O402      1.0  0.46048  0.59299  0.88863  1.0000
  O   O403      1.0  0.88863  0.40703  0.53953  1.0000
  O   O404      1.0  0.46048  0.88863  0.59298  1.0000
  O   O405      1.0  0.40703  0.46046  0.11137  1.0000
  O   O406      1.0  0.88863  0.46046  0.59297  1.0000
  O   O407      1.0  0.40702  0.88863  0.53952  1.0000
  O   O408      1.0  0.46046  0.40703  0.11137  1.0000
  O   O409      1.0  0.88863  0.40701  0.46048  1.0000
  O   O410      1.0  0.46047  0.88863  0.40702  1.0000
  O   O411      1.0  0.40703  0.46046  0.88863  1.0000
  O   O412      1.0  0.88863  0.46047  0.40701  1.0000
  O   O413      1.0  0.40702  0.88863  0.46048  1.0000
  O   O414      1.0  0.46046  0.40703  0.88863  1.0000
  O   O415      1.0  0.88863  0.59299  0.53952  1.0000
  O   O416      1.0  0.46048  0.11137  0.59298  1.0000
  O   O417      1.0  0.40701  0.53953  0.11137  1.0000
  O   O418      1.0  0.88863  0.53953  0.59299  1.0000
  O   O419      1.0  0.40702  0.11137  0.53952  1.0000
  O   O420      1.0  0.46048  0.59299  0.11137  1.0000
  O   O421      1.0  0.11137  0.40703  0.53953  1.0000
  O   O422      1.0  0.53953  0.88863  0.59298  1.0000
  O   O423      1.0  0.59299  0.46047  0.11137  1.0000
  O   O424      1.0  0.11137  0.46046  0.59297  1.0000
  O   O425      1.0  0.59298  0.88863  0.53952  1.0000
  O   O426      1.0  0.53952  0.40701  0.11137  1.0000
  O   O427      1.0  0.11137  0.59297  0.46047  1.0000
  O   O428      1.0  0.53952  0.11137  0.40702  1.0000
  O   O429      1.0  0.59297  0.53954  0.88863  1.0000
  O   O430      1.0  0.11137  0.53954  0.40703  1.0000
  O   O431      1.0  0.59298  0.11137  0.46048  1.0000
  O   O432      1.0  0.53954  0.59297  0.88863  1.0000
  O   O433      1.0  0.61137  0.09299  0.03952  1.0000
  O   O434      1.0  0.03953  0.61137  0.09298  1.0000
  O   O435      1.0  0.09297  0.03954  0.61137  1.0000
  O   O436      1.0  0.61137  0.03953  0.09299  1.0000
  O   O437      1.0  0.09298  0.61137  0.03952  1.0000
  O   O438      1.0  0.03954  0.09297  0.61137  1.0000
  O   O439      1.0  0.61137  0.90701  0.96048  1.0000
  O   O440      1.0  0.03952  0.38863  0.90702  1.0000
  O   O441      1.0  0.09299  0.96047  0.38863  1.0000
  O   O442      1.0  0.61137  0.96047  0.90701  1.0000
  O   O443      1.0  0.09298  0.38863  0.96048  1.0000
  O   O444      1.0  0.03952  0.90701  0.38863  1.0000
  O   O445      1.0  0.38863  0.09297  0.96047  1.0000
  O   O446      1.0  0.96047  0.61137  0.90702  1.0000
  O   O447      1.0  0.90701  0.03953  0.38863  1.0000
  O   O448      1.0  0.38863  0.03954  0.90703  1.0000
  O   O449      1.0  0.90702  0.61137  0.96048  1.0000
  O   O450      1.0  0.96048  0.09299  0.38863  1.0000
  O   O451      1.0  0.38863  0.90703  0.03953  1.0000
  O   O452      1.0  0.96048  0.38863  0.09298  1.0000
  O   O453      1.0  0.90703  0.96046  0.61137  1.0000
  O   O454      1.0  0.38863  0.96046  0.09297  1.0000
  O   O455      1.0  0.90702  0.38863  0.03952  1.0000
  O   O456      1.0  0.96046  0.90703  0.61137  1.0000
  O   O457      1.0  0.38863  0.90701  0.96048  1.0000
  O   O458      1.0  0.96047  0.38863  0.90702  1.0000
  O   O459      1.0  0.90703  0.96046  0.38863  1.0000
  O   O460      1.0  0.38863  0.96047  0.90701  1.0000
  O   O461      1.0  0.90702  0.38863  0.96048  1.0000
  O   O462      1.0  0.96046  0.90703  0.38863  1.0000
  O   O463      1.0  0.38863  0.09299  0.03952  1.0000
  O   O464      1.0  0.96048  0.61137  0.09298  1.0000
  O   O465      1.0  0.90701  0.03953  0.61137  1.0000
  O   O466      1.0  0.38863  0.03953  0.09299  1.0000
  O   O467      1.0  0.90702  0.61137  0.03952  1.0000
  O   O468      1.0  0.96048  0.09299  0.61137  1.0000
  O   O469      1.0  0.61137  0.90703  0.03953  1.0000
  O   O470      1.0  0.03952  0.38863  0.09298  1.0000
  O   O471      1.0  0.09299  0.96047  0.61137  1.0000
  O   O472      1.0  0.61137  0.96046  0.09297  1.0000
  O   O473      1.0  0.09298  0.38863  0.03952  1.0000
  O   O474      1.0  0.03952  0.90701  0.61137  1.0000
  O   O475      1.0  0.61137  0.09297  0.96047  1.0000
  O   O476      1.0  0.03953  0.61137  0.90702  1.0000
  O   O477      1.0  0.09297  0.03954  0.38863  1.0000
  O   O478      1.0  0.61137  0.03954  0.90703  1.0000
  O   O479      1.0  0.09298  0.61137  0.96048  1.0000
  O   O480      1.0  0.03954  0.09297  0.38863  1.0000
  O   O481      1.0  0.55546  0.11061  0.04439  1.0000
  O   O482      1.0  0.04437  0.55546  0.11061  1.0000
  O   O483      1.0  0.11062  0.04438  0.55546  1.0000
  O   O484      1.0  0.55545  0.04438  0.11061  1.0000
  O   O485      1.0  0.11061  0.55546  0.04439  1.0000
  O   O486      1.0  0.04437  0.11062  0.55546  1.0000
  O   O487      1.0  0.55546  0.88939  0.95563  1.0000
  O   O488      1.0  0.04437  0.44454  0.88939  1.0000
  O   O489      1.0  0.11060  0.95562  0.44454  1.0000
  O   O490      1.0  0.55546  0.95563  0.88939  1.0000
  O   O491      1.0  0.11061  0.44454  0.95563  1.0000
  O   O492      1.0  0.04437  0.88940  0.44455  1.0000
  O   O493      1.0  0.44454  0.11061  0.95563  1.0000
  O   O494      1.0  0.95562  0.55546  0.88938  1.0000
  O   O495      1.0  0.88940  0.04438  0.44455  1.0000
  O   O496      1.0  0.44454  0.04438  0.88939  1.0000
  O   O497      1.0  0.88939  0.55546  0.95563  1.0000
  O   O498      1.0  0.95561  0.11060  0.44454  1.0000
  O   O499      1.0  0.44454  0.88939  0.04439  1.0000
  O   O500      1.0  0.95561  0.44454  0.11061  1.0000
  O   O501      1.0  0.88938  0.95562  0.55546  1.0000
  O   O502      1.0  0.44454  0.95562  0.11061  1.0000
  O   O503      1.0  0.88939  0.44454  0.04439  1.0000
  O   O504      1.0  0.95561  0.88938  0.55547  1.0000
  O   O505      1.0  0.44454  0.88939  0.95561  1.0000
  O   O506      1.0  0.95563  0.44454  0.88939  1.0000
  O   O507      1.0  0.88938  0.95562  0.44454  1.0000
  O   O508      1.0  0.44455  0.95562  0.88939  1.0000
  O   O509      1.0  0.88939  0.44454  0.95561  1.0000
  O   O510      1.0  0.95563  0.88938  0.44454  1.0000
  O   O511      1.0  0.44454  0.11061  0.04437  1.0000
  O   O512      1.0  0.95563  0.55546  0.11061  1.0000
  O   O513      1.0  0.88939  0.04438  0.55546  1.0000
  O   O514      1.0  0.44454  0.04437  0.11061  1.0000
  O   O515      1.0  0.88939  0.55546  0.04437  1.0000
  O   O516      1.0  0.95563  0.11060  0.55545  1.0000
  O   O517      1.0  0.55546  0.88939  0.04437  1.0000
  O   O518      1.0  0.04439  0.44454  0.11062  1.0000
  O   O519      1.0  0.11060  0.95562  0.55545  1.0000
  O   O520      1.0  0.55546  0.95562  0.11061  1.0000
  O   O521      1.0  0.11061  0.44454  0.04437  1.0000
  O   O522      1.0  0.04439  0.88940  0.55546  1.0000
  O   O523      1.0  0.55546  0.11062  0.95561  1.0000
  O   O524      1.0  0.04439  0.55546  0.88939  1.0000
  O   O525      1.0  0.11062  0.04438  0.44454  1.0000
  O   O526      1.0  0.55546  0.04438  0.88939  1.0000
  O   O527      1.0  0.11061  0.55546  0.95561  1.0000
  O   O528      1.0  0.04439  0.11062  0.44453  1.0000
  O   O529      1.0  0.05546  0.61061  0.54439  1.0000
  O   O530      1.0  0.54437  0.05546  0.61061  1.0000
  O   O531      1.0  0.61062  0.54438  0.05546  1.0000
  O   O532      1.0  0.05545  0.54438  0.61061  1.0000
  O   O533      1.0  0.61061  0.05546  0.54439  1.0000
  O   O534      1.0  0.54437  0.61062  0.05546  1.0000
  O   O535      1.0  0.05546  0.38939  0.45563  1.0000
  O   O536      1.0  0.54437  0.94454  0.38939  1.0000
  O   O537      1.0  0.61060  0.45562  0.94454  1.0000
  O   O538      1.0  0.05546  0.45563  0.38939  1.0000
  O   O539      1.0  0.61062  0.94454  0.45563  1.0000
  O   O540      1.0  0.54437  0.38940  0.94455  1.0000
  O   O541      1.0  0.94454  0.61061  0.45563  1.0000
  O   O542      1.0  0.45562  0.05546  0.38938  1.0000
  O   O543      1.0  0.38940  0.54438  0.94455  1.0000
  O   O544      1.0  0.94454  0.54438  0.38939  1.0000
  O   O545      1.0  0.38939  0.05546  0.45563  1.0000
  O   O546      1.0  0.45561  0.61061  0.94454  1.0000
  O   O547      1.0  0.94453  0.38939  0.54439  1.0000
  O   O548      1.0  0.45561  0.94454  0.61061  1.0000
  O   O549      1.0  0.38939  0.45562  0.05546  1.0000
  O   O550      1.0  0.94454  0.45562  0.61061  1.0000
  O   O551      1.0  0.38939  0.94454  0.54439  1.0000
  O   O552      1.0  0.45561  0.38938  0.05547  1.0000
  O   O553      1.0  0.94454  0.38939  0.45561  1.0000
  O   O554      1.0  0.45563  0.94454  0.38939  1.0000
  O   O555      1.0  0.38938  0.45562  0.94454  1.0000
  O   O556      1.0  0.94455  0.45562  0.38939  1.0000
  O   O557      1.0  0.38939  0.94454  0.45561  1.0000
  O   O558      1.0  0.45563  0.38938  0.94454  1.0000
  O   O559      1.0  0.94454  0.61061  0.54437  1.0000
  O   O560      1.0  0.45563  0.05546  0.61061  1.0000
  O   O561      1.0  0.38940  0.54438  0.05546  1.0000
  O   O562      1.0  0.94454  0.54437  0.61061  1.0000
  O   O563      1.0  0.38939  0.05546  0.54437  1.0000
  O   O564      1.0  0.45563  0.61060  0.05545  1.0000
  O   O565      1.0  0.05546  0.38939  0.54437  1.0000
  O   O566      1.0  0.54438  0.94454  0.61061  1.0000
  O   O567      1.0  0.61060  0.45562  0.05545  1.0000
  O   O568      1.0  0.05546  0.45562  0.61061  1.0000
  O   O569      1.0  0.61061  0.94454  0.54437  1.0000
  O   O570      1.0  0.54439  0.38939  0.05546  1.0000
  O   O571      1.0  0.05546  0.61061  0.45561  1.0000
  O   O572      1.0  0.54439  0.05546  0.38939  1.0000
  O   O573      1.0  0.61061  0.54438  0.94454  1.0000
  O   O574      1.0  0.05546  0.54438  0.38939  1.0000
  O   O575      1.0  0.61061  0.05546  0.45561  1.0000
  O   O576      1.0  0.54439  0.61062  0.94453  1.0000
  O   O577      1.0  0.68596  0.61083  0.81808  1.0000
  O   O578      1.0  0.81808  0.68595  0.61082  1.0000
  O   O579      1.0  0.61083  0.81809  0.68597  1.0000
  O   O580      1.0  0.68596  0.81808  0.61083  1.0000
  O   O581      1.0  0.61083  0.68597  0.81809  1.0000
  O   O582      1.0  0.81808  0.61082  0.68596  1.0000
  O   O583      1.0  0.68597  0.38917  0.18193  1.0000
  O   O584      1.0  0.81809  0.31402  0.38918  1.0000
  O   O585      1.0  0.61083  0.18191  0.31403  1.0000
  O   O586      1.0  0.68597  0.18190  0.38917  1.0000
  O   O587      1.0  0.61083  0.31402  0.18191  1.0000
  O   O588      1.0  0.81808  0.38917  0.31403  1.0000
  O   O589      1.0  0.31403  0.61082  0.18192  1.0000
  O   O590      1.0  0.18190  0.68598  0.38917  1.0000
  O   O591      1.0  0.38917  0.81808  0.31404  1.0000
  O   O592      1.0  0.31403  0.81810  0.38917  1.0000
  O   O593      1.0  0.38918  0.68596  0.18193  1.0000
  O   O594      1.0  0.18192  0.61083  0.31404  1.0000
  O   O595      1.0  0.31404  0.38917  0.81808  1.0000
  O   O596      1.0  0.18192  0.31405  0.61083  1.0000
  O   O597      1.0  0.38917  0.18192  0.68596  1.0000
  O   O598      1.0  0.31404  0.18192  0.61083  1.0000
  O   O599      1.0  0.38917  0.31405  0.81808  1.0000
  O   O600      1.0  0.18192  0.38917  0.68597  1.0000
  O   O601      1.0  0.31404  0.38917  0.18192  1.0000
  O   O602      1.0  0.18192  0.31405  0.38918  1.0000
  O   O603      1.0  0.38917  0.18191  0.31403  1.0000
  O   O604      1.0  0.31404  0.18192  0.38917  1.0000
  O   O605      1.0  0.38917  0.31402  0.18191  1.0000
  O   O606      1.0  0.18192  0.38918  0.31404  1.0000
  O   O607      1.0  0.31403  0.61083  0.81807  1.0000
  O   O608      1.0  0.18191  0.68598  0.61082  1.0000
  O   O609      1.0  0.38917  0.81809  0.68597  1.0000
  O   O610      1.0  0.31403  0.81810  0.61083  1.0000
  O   O611      1.0  0.38917  0.68598  0.81809  1.0000
  O   O612      1.0  0.18192  0.61083  0.68597  1.0000
  O   O613      1.0  0.68597  0.38918  0.81808  1.0000
  O   O614      1.0  0.81809  0.31402  0.61083  1.0000
  O   O615      1.0  0.61083  0.18192  0.68596  1.0000
  O   O616      1.0  0.68597  0.18190  0.61083  1.0000
  O   O617      1.0  0.61082  0.31404  0.81807  1.0000
  O   O618      1.0  0.81808  0.38917  0.68596  1.0000
  O   O619      1.0  0.68596  0.61083  0.18192  1.0000
  O   O620      1.0  0.81808  0.68595  0.38917  1.0000
  O   O621      1.0  0.61083  0.81808  0.31404  1.0000
  O   O622      1.0  0.68596  0.81808  0.38917  1.0000
  O   O623      1.0  0.61083  0.68595  0.18192  1.0000
  O   O624      1.0  0.81808  0.61083  0.31403  1.0000
  O   O625      1.0  0.18596  0.11083  0.31808  1.0000
  O   O626      1.0  0.31808  0.18595  0.11082  1.0000
  O   O627      1.0  0.11083  0.31809  0.18597  1.0000
  O   O628      1.0  0.18596  0.31808  0.11083  1.0000
  O   O629      1.0  0.11083  0.18598  0.31809  1.0000
  O   O630      1.0  0.31808  0.11082  0.18596  1.0000
  O   O631      1.0  0.18597  0.88917  0.68193  1.0000
  O   O632      1.0  0.31809  0.81402  0.88918  1.0000
  O   O633      1.0  0.11083  0.68191  0.81403  1.0000
  O   O634      1.0  0.18597  0.68191  0.88917  1.0000
  O   O635      1.0  0.11082  0.81402  0.68191  1.0000
  O   O636      1.0  0.31808  0.88917  0.81403  1.0000
  O   O637      1.0  0.81403  0.11082  0.68192  1.0000
  O   O638      1.0  0.68191  0.18598  0.88917  1.0000
  O   O639      1.0  0.88917  0.31808  0.81404  1.0000
  O   O640      1.0  0.81403  0.31810  0.88917  1.0000
  O   O641      1.0  0.88918  0.18596  0.68193  1.0000
  O   O642      1.0  0.68192  0.11083  0.81404  1.0000
  O   O643      1.0  0.81404  0.88918  0.31808  1.0000
  O   O644      1.0  0.68192  0.81405  0.11083  1.0000
  O   O645      1.0  0.88917  0.68192  0.18596  1.0000
  O   O646      1.0  0.81404  0.68192  0.11083  1.0000
  O   O647      1.0  0.88917  0.81405  0.31808  1.0000
  O   O648      1.0  0.68192  0.88917  0.18597  1.0000
  O   O649      1.0  0.81404  0.88917  0.68192  1.0000
  O   O650      1.0  0.68192  0.81405  0.88918  1.0000
  O   O651      1.0  0.88917  0.68191  0.81403  1.0000
  O   O652      1.0  0.81404  0.68192  0.88917  1.0000
  O   O653      1.0  0.88917  0.81402  0.68191  1.0000
  O   O654      1.0  0.68192  0.88918  0.81404  1.0000
  O   O655      1.0  0.81403  0.11083  0.31807  1.0000
  O   O656      1.0  0.68191  0.18598  0.11082  1.0000
  O   O657      1.0  0.88917  0.31809  0.18597  1.0000
  O   O658      1.0  0.81403  0.31810  0.11083  1.0000
  O   O659      1.0  0.88918  0.18598  0.31809  1.0000
  O   O660      1.0  0.68192  0.11083  0.18597  1.0000
  O   O661      1.0  0.18597  0.88918  0.31808  1.0000
  O   O662      1.0  0.31809  0.81402  0.11083  1.0000
  O   O663      1.0  0.11083  0.68192  0.18596  1.0000
  O   O664      1.0  0.18597  0.68190  0.11083  1.0000
  O   O665      1.0  0.11082  0.81404  0.31807  1.0000
  O   O666      1.0  0.31808  0.88917  0.18596  1.0000
  O   O667      1.0  0.18596  0.11083  0.68192  1.0000
  O   O668      1.0  0.31808  0.18595  0.88917  1.0000
  O   O669      1.0  0.11083  0.31808  0.81404  1.0000
  O   O670      1.0  0.18596  0.31808  0.88917  1.0000
  O   O671      1.0  0.11083  0.18595  0.68192  1.0000
  O   O672      1.0  0.31808  0.11083  0.81403  1.0000
  O   O673      1.0  0.70370  0.77800  0.65039  1.0000
  O   O674      1.0  0.65039  0.70369  0.77800  1.0000
  O   O675      1.0  0.77800  0.65039  0.70371  1.0000
  O   O676      1.0  0.70369  0.65040  0.77799  1.0000
  O   O677      1.0  0.77800  0.70371  0.65039  1.0000
  O   O678      1.0  0.65038  0.77800  0.70370  1.0000
  O   O679      1.0  0.70371  0.22200  0.34961  1.0000
  O   O680      1.0  0.65039  0.29629  0.22200  1.0000
  O   O681      1.0  0.77800  0.34961  0.29629  1.0000
  O   O682      1.0  0.70371  0.34960  0.22200  1.0000
  O   O683      1.0  0.77800  0.29629  0.34962  1.0000
  O   O684      1.0  0.65039  0.22200  0.29629  1.0000
  O   O685      1.0  0.29630  0.77800  0.34962  1.0000
  O   O686      1.0  0.34961  0.70370  0.22200  1.0000
  O   O687      1.0  0.22201  0.65040  0.29631  1.0000
  O   O688      1.0  0.29629  0.65039  0.22200  1.0000
  O   O689      1.0  0.22200  0.70370  0.34961  1.0000
  O   O690      1.0  0.34961  0.77800  0.29629  1.0000
  O   O691      1.0  0.29629  0.22200  0.65039  1.0000
  O   O692      1.0  0.34961  0.29630  0.77800  1.0000
  O   O693      1.0  0.22201  0.34960  0.70370  1.0000
  O   O694      1.0  0.29630  0.34961  0.77800  1.0000
  O   O695      1.0  0.22200  0.29630  0.65039  1.0000
  O   O696      1.0  0.34961  0.22200  0.70371  1.0000
  O   O697      1.0  0.29630  0.22200  0.34961  1.0000
  O   O698      1.0  0.34961  0.29631  0.22200  1.0000
  O   O699      1.0  0.22200  0.34961  0.29629  1.0000
  O   O700      1.0  0.29631  0.34960  0.22201  1.0000
  O   O701      1.0  0.22200  0.29629  0.34961  1.0000
  O   O702      1.0  0.34961  0.22200  0.29630  1.0000
  O   O703      1.0  0.29630  0.77800  0.65039  1.0000
  O   O704      1.0  0.34961  0.70371  0.77800  1.0000
  O   O705      1.0  0.22200  0.65039  0.70371  1.0000
  O   O706      1.0  0.29629  0.65040  0.77800  1.0000
  O   O707      1.0  0.22200  0.70371  0.65038  1.0000
  O   O708      1.0  0.34961  0.77800  0.70370  1.0000
  O   O709      1.0  0.70370  0.22200  0.65038  1.0000
  O   O710      1.0  0.65039  0.29629  0.77800  1.0000
  O   O711      1.0  0.77799  0.34960  0.70370  1.0000
  O   O712      1.0  0.70371  0.34961  0.77800  1.0000
  O   O713      1.0  0.77800  0.29630  0.65039  1.0000
  O   O714      1.0  0.65039  0.22200  0.70371  1.0000
  O   O715      1.0  0.70370  0.77800  0.34961  1.0000
  O   O716      1.0  0.65039  0.70369  0.22200  1.0000
  O   O717      1.0  0.77799  0.65040  0.29630  1.0000
  O   O718      1.0  0.70370  0.65039  0.22200  1.0000
  O   O719      1.0  0.77800  0.70370  0.34961  1.0000
  O   O720      1.0  0.65039  0.77800  0.29630  1.0000
  O   O721      1.0  0.20370  0.27800  0.15039  1.0000
  O   O722      1.0  0.15039  0.20369  0.27800  1.0000
  O   O723      1.0  0.27800  0.15039  0.20371  1.0000
  O   O724      1.0  0.20369  0.15040  0.27799  1.0000
  O   O725      1.0  0.27800  0.20371  0.15039  1.0000
  O   O726      1.0  0.15039  0.27800  0.20370  1.0000
  O   O727      1.0  0.20371  0.72200  0.84961  1.0000
  O   O728      1.0  0.15039  0.79629  0.72200  1.0000
  O   O729      1.0  0.27800  0.84961  0.79629  1.0000
  O   O730      1.0  0.20371  0.84960  0.72200  1.0000
  O   O731      1.0  0.27800  0.79629  0.84962  1.0000
  O   O732      1.0  0.15039  0.72200  0.79629  1.0000
  O   O733      1.0  0.79629  0.27800  0.84962  1.0000
  O   O734      1.0  0.84961  0.20371  0.72200  1.0000
  O   O735      1.0  0.72201  0.15040  0.79631  1.0000
  O   O736      1.0  0.79629  0.15039  0.72200  1.0000
  O   O737      1.0  0.72200  0.20370  0.84961  1.0000
  O   O738      1.0  0.84961  0.27800  0.79629  1.0000
  O   O739      1.0  0.79629  0.72200  0.15039  1.0000
  O   O740      1.0  0.84961  0.79630  0.27800  1.0000
  O   O741      1.0  0.72201  0.84960  0.20370  1.0000
  O   O742      1.0  0.79630  0.84961  0.27800  1.0000
  O   O743      1.0  0.72200  0.79630  0.15039  1.0000
  O   O744      1.0  0.84961  0.72200  0.20370  1.0000
  O   O745      1.0  0.79630  0.72200  0.84961  1.0000
  O   O746      1.0  0.84961  0.79631  0.72200  1.0000
  O   O747      1.0  0.72200  0.84961  0.79629  1.0000
  O   O748      1.0  0.79631  0.84960  0.72201  1.0000
  O   O749      1.0  0.72200  0.79629  0.84961  1.0000
  O   O750      1.0  0.84961  0.72200  0.79630  1.0000
  O   O751      1.0  0.79629  0.27800  0.15039  1.0000
  O   O752      1.0  0.84961  0.20371  0.27800  1.0000
  O   O753      1.0  0.72200  0.15039  0.20371  1.0000
  O   O754      1.0  0.79629  0.15040  0.27800  1.0000
  O   O755      1.0  0.72200  0.20371  0.15038  1.0000
  O   O756      1.0  0.84961  0.27800  0.20370  1.0000
  O   O757      1.0  0.20370  0.72200  0.15038  1.0000
  O   O758      1.0  0.15039  0.79629  0.27800  1.0000
  O   O759      1.0  0.27799  0.84960  0.20370  1.0000
  O   O760      1.0  0.20371  0.84961  0.27800  1.0000
  O   O761      1.0  0.27800  0.79630  0.15039  1.0000
  O   O762      1.0  0.15039  0.72200  0.20371  1.0000
  O   O763      1.0  0.20371  0.27800  0.84961  1.0000
  O   O764      1.0  0.15039  0.20370  0.72200  1.0000
  O   O765      1.0  0.27799  0.15040  0.79630  1.0000
  O   O766      1.0  0.20370  0.15039  0.72200  1.0000
  O   O767      1.0  0.27800  0.20370  0.84961  1.0000
  O   O768      1.0  0.15039  0.27800  0.79629  1.0000
  O   O769      1.0  0.73849  0.68499  0.61097  1.0000
  O   O770      1.0  0.61097  0.73849  0.68497  1.0000
  O   O771      1.0  0.68498  0.61097  0.73849  1.0000
  O   O772      1.0  0.73850  0.61097  0.68498  1.0000
  O   O773      1.0  0.68499  0.73849  0.61097  1.0000
  O   O774      1.0  0.61096  0.68497  0.73850  1.0000
  O   O775      1.0  0.73850  0.31503  0.38904  1.0000
  O   O776      1.0  0.61097  0.26151  0.31503  1.0000
  O   O777      1.0  0.68498  0.38903  0.26150  1.0000
  O   O778      1.0  0.73850  0.38903  0.31503  1.0000
  O   O779      1.0  0.68497  0.26151  0.38903  1.0000
  O   O780      1.0  0.61097  0.31503  0.26150  1.0000
  O   O781      1.0  0.26151  0.68497  0.38904  1.0000
  O   O782      1.0  0.38903  0.73849  0.31502  1.0000
  O   O783      1.0  0.31502  0.61097  0.26150  1.0000
  O   O784      1.0  0.26151  0.61097  0.31503  1.0000
  O   O785      1.0  0.31503  0.73850  0.38903  1.0000
  O   O786      1.0  0.38903  0.68498  0.26150  1.0000
  O   O787      1.0  0.26151  0.31502  0.61097  1.0000
  O   O788      1.0  0.38903  0.26151  0.68498  1.0000
  O   O789      1.0  0.31503  0.38904  0.73850  1.0000
  O   O790      1.0  0.26150  0.38903  0.68497  1.0000
  O   O791      1.0  0.31502  0.26151  0.61097  1.0000
  O   O792      1.0  0.38903  0.31502  0.73849  1.0000
  O   O793      1.0  0.26151  0.31501  0.38903  1.0000
  O   O794      1.0  0.38903  0.26150  0.31503  1.0000
  O   O795      1.0  0.31503  0.38903  0.26151  1.0000
  O   O796      1.0  0.26150  0.38903  0.31502  1.0000
  O   O797      1.0  0.31502  0.26152  0.38903  1.0000
  O   O798      1.0  0.38904  0.31503  0.26150  1.0000
  O   O799      1.0  0.26150  0.68497  0.61096  1.0000
  O   O800      1.0  0.38903  0.73849  0.68497  1.0000
  O   O801      1.0  0.31502  0.61097  0.73850  1.0000
  O   O802      1.0  0.26151  0.61097  0.68497  1.0000
  O   O803      1.0  0.31503  0.73849  0.61097  1.0000
  O   O804      1.0  0.38904  0.68497  0.73850  1.0000
  O   O805      1.0  0.73849  0.31503  0.61096  1.0000
  O   O806      1.0  0.61097  0.26151  0.68498  1.0000
  O   O807      1.0  0.68498  0.38903  0.73850  1.0000
  O   O808      1.0  0.73849  0.38903  0.68497  1.0000
  O   O809      1.0  0.68497  0.26151  0.61097  1.0000
  O   O810      1.0  0.61097  0.31502  0.73849  1.0000
  O   O811      1.0  0.73849  0.68498  0.38903  1.0000
  O   O812      1.0  0.61097  0.73849  0.31502  1.0000
  O   O813      1.0  0.68497  0.61096  0.26150  1.0000
  O   O814      1.0  0.73850  0.61097  0.31503  1.0000
  O   O815      1.0  0.68498  0.73849  0.38903  1.0000
  O   O816      1.0  0.61097  0.68498  0.26151  1.0000
  O   O817      1.0  0.23849  0.18499  0.11097  1.0000
  O   O818      1.0  0.11097  0.23850  0.18497  1.0000
  O   O819      1.0  0.18497  0.11097  0.23849  1.0000
  O   O820      1.0  0.23850  0.11097  0.18497  1.0000
  O   O821      1.0  0.18499  0.23848  0.11097  1.0000
  O   O822      1.0  0.11096  0.18497  0.23850  1.0000
  O   O823      1.0  0.23850  0.81503  0.88904  1.0000
  O   O824      1.0  0.11097  0.76151  0.81503  1.0000
  O   O825      1.0  0.18498  0.88903  0.76150  1.0000
  O   O826      1.0  0.23850  0.88903  0.81503  1.0000
  O   O827      1.0  0.18497  0.76151  0.88903  1.0000
  O   O828      1.0  0.11096  0.81503  0.76150  1.0000
  O   O829      1.0  0.76151  0.18497  0.88904  1.0000
  O   O830      1.0  0.88903  0.23849  0.81502  1.0000
  O   O831      1.0  0.81502  0.11097  0.76150  1.0000
  O   O832      1.0  0.76151  0.11097  0.81503  1.0000
  O   O833      1.0  0.81503  0.23849  0.88903  1.0000
  O   O834      1.0  0.88903  0.18498  0.76150  1.0000
  O   O835      1.0  0.76151  0.81502  0.11097  1.0000
  O   O836      1.0  0.88903  0.76151  0.18498  1.0000
  O   O837      1.0  0.81503  0.88904  0.23850  1.0000
  O   O838      1.0  0.76150  0.88903  0.18497  1.0000
  O   O839      1.0  0.81502  0.76151  0.11097  1.0000
  O   O840      1.0  0.88903  0.81502  0.23849  1.0000
  O   O841      1.0  0.76151  0.81501  0.88903  1.0000
  O   O842      1.0  0.88903  0.76150  0.81503  1.0000
  O   O843      1.0  0.81502  0.88903  0.76151  1.0000
  O   O844      1.0  0.76150  0.88903  0.81502  1.0000
  O   O845      1.0  0.81501  0.76152  0.88903  1.0000
  O   O846      1.0  0.88904  0.81503  0.76150  1.0000
  O   O847      1.0  0.76150  0.18497  0.11096  1.0000
  O   O848      1.0  0.88903  0.23849  0.18497  1.0000
  O   O849      1.0  0.81502  0.11097  0.23850  1.0000
  O   O850      1.0  0.76150  0.11097  0.18497  1.0000
  O   O851      1.0  0.81503  0.23849  0.11097  1.0000
  O   O852      1.0  0.88904  0.18497  0.23850  1.0000
  O   O853      1.0  0.23849  0.81503  0.11096  1.0000
  O   O854      1.0  0.11097  0.76151  0.18498  1.0000
  O   O855      1.0  0.18498  0.88903  0.23850  1.0000
  O   O856      1.0  0.23849  0.88903  0.18497  1.0000
  O   O857      1.0  0.18497  0.76151  0.11096  1.0000
  O   O858      1.0  0.11097  0.81502  0.23849  1.0000
  O   O859      1.0  0.23849  0.18498  0.88903  1.0000
  O   O860      1.0  0.11097  0.23849  0.81502  1.0000
  O   O861      1.0  0.18497  0.11096  0.76150  1.0000
  O   O862      1.0  0.23850  0.11097  0.81502  1.0000
  O   O863      1.0  0.18498  0.23849  0.88903  1.0000
  O   O864      1.0  0.11097  0.18498  0.76151  1.0000
  O   O865      1.0  0.77805  0.57103  0.70304  1.0000
  O   O866      1.0  0.70305  0.77805  0.57105  1.0000
  O   O867      1.0  0.57105  0.70306  0.77805  1.0000
  O   O868      1.0  0.77805  0.70304  0.57104  1.0000
  O   O869      1.0  0.57105  0.77805  0.70305  1.0000
  O   O870      1.0  0.70306  0.57105  0.77805  1.0000
  O   O871      1.0  0.77804  0.42896  0.29696  1.0000
  O   O872      1.0  0.70305  0.22195  0.42894  1.0000
  O   O873      1.0  0.57104  0.29696  0.22195  1.0000
  O   O874      1.0  0.77805  0.29697  0.42896  1.0000
  O   O875      1.0  0.57105  0.22195  0.29696  1.0000
  O   O876      1.0  0.70304  0.42897  0.22196  1.0000
  O   O877      1.0  0.22196  0.57105  0.29695  1.0000
  O   O878      1.0  0.29696  0.77805  0.42895  1.0000
  O   O879      1.0  0.42897  0.70304  0.22196  1.0000
  O   O880      1.0  0.22195  0.70305  0.42895  1.0000
  O   O881      1.0  0.42895  0.77805  0.29695  1.0000
  O   O882      1.0  0.29696  0.57103  0.22195  1.0000
  O   O883      1.0  0.22195  0.42895  0.70305  1.0000
  O   O884      1.0  0.29695  0.22195  0.57105  1.0000
  O   O885      1.0  0.42895  0.29694  0.77805  1.0000
  O   O886      1.0  0.22195  0.29694  0.57105  1.0000
  O   O887      1.0  0.42895  0.22195  0.70305  1.0000
  O   O888      1.0  0.29695  0.42896  0.77805  1.0000
  O   O889      1.0  0.22195  0.42897  0.29696  1.0000
  O   O890      1.0  0.29695  0.22196  0.42895  1.0000
  O   O891      1.0  0.42895  0.29694  0.22195  1.0000
  O   O892      1.0  0.22195  0.29696  0.42896  1.0000
  O   O893      1.0  0.42895  0.22195  0.29695  1.0000
  O   O894      1.0  0.29694  0.42895  0.22195  1.0000
  O   O895      1.0  0.22196  0.57104  0.70304  1.0000
  O   O896      1.0  0.29695  0.77805  0.57106  1.0000
  O   O897      1.0  0.42896  0.70304  0.77805  1.0000
  O   O898      1.0  0.22195  0.70303  0.57104  1.0000
  O   O899      1.0  0.42895  0.77805  0.70304  1.0000
  O   O900      1.0  0.29696  0.57103  0.77804  1.0000
  O   O901      1.0  0.77804  0.42895  0.70305  1.0000
  O   O902      1.0  0.70304  0.22195  0.57105  1.0000
  O   O903      1.0  0.57103  0.29696  0.77804  1.0000
  O   O904      1.0  0.77805  0.29695  0.57105  1.0000
  O   O905      1.0  0.57105  0.22195  0.70305  1.0000
  O   O906      1.0  0.70304  0.42897  0.77805  1.0000
  O   O907      1.0  0.77805  0.57105  0.29695  1.0000
  O   O908      1.0  0.70305  0.77805  0.42895  1.0000
  O   O909      1.0  0.57105  0.70306  0.22195  1.0000
  O   O910      1.0  0.77805  0.70306  0.42895  1.0000
  O   O911      1.0  0.57105  0.77805  0.29695  1.0000
  O   O912      1.0  0.70305  0.57104  0.22195  1.0000
  O   O913      1.0  0.27805  0.07103  0.20304  1.0000
  O   O914      1.0  0.20305  0.27804  0.07105  1.0000
  O   O915      1.0  0.07105  0.20306  0.27805  1.0000
  O   O916      1.0  0.27805  0.20304  0.07104  1.0000
  O   O917      1.0  0.07105  0.27805  0.20305  1.0000
  O   O918      1.0  0.20306  0.07105  0.27805  1.0000
  O   O919      1.0  0.27804  0.92896  0.79696  1.0000
  O   O920      1.0  0.20304  0.72195  0.92895  1.0000
  O   O921      1.0  0.07104  0.79696  0.72195  1.0000
  O   O922      1.0  0.27805  0.79697  0.92896  1.0000
  O   O923      1.0  0.07105  0.72195  0.79696  1.0000
  O   O924      1.0  0.20304  0.92897  0.72196  1.0000
  O   O925      1.0  0.72196  0.07105  0.79695  1.0000
  O   O926      1.0  0.79696  0.27805  0.92895  1.0000
  O   O927      1.0  0.92897  0.20304  0.72196  1.0000
  O   O928      1.0  0.72195  0.20305  0.92895  1.0000
  O   O929      1.0  0.92895  0.27805  0.79695  1.0000
  O   O930      1.0  0.79696  0.07103  0.72195  1.0000
  O   O931      1.0  0.72195  0.92895  0.20305  1.0000
  O   O932      1.0  0.79695  0.72195  0.07105  1.0000
  O   O933      1.0  0.92895  0.79694  0.27805  1.0000
  O   O934      1.0  0.72195  0.79694  0.07105  1.0000
  O   O935      1.0  0.92895  0.72195  0.20305  1.0000
  O   O936      1.0  0.79695  0.92896  0.27805  1.0000
  O   O937      1.0  0.72195  0.92897  0.79696  1.0000
  O   O938      1.0  0.79695  0.72196  0.92895  1.0000
  O   O939      1.0  0.92895  0.79694  0.72195  1.0000
  O   O940      1.0  0.72195  0.79696  0.92896  1.0000
  O   O941      1.0  0.92895  0.72195  0.79695  1.0000
  O   O942      1.0  0.79695  0.92895  0.72195  1.0000
  O   O943      1.0  0.72196  0.07104  0.20304  1.0000
  O   O944      1.0  0.79695  0.27805  0.07106  1.0000
  O   O945      1.0  0.92896  0.20304  0.27805  1.0000
  O   O946      1.0  0.72195  0.20303  0.07104  1.0000
  O   O947      1.0  0.92895  0.27805  0.20304  1.0000
  O   O948      1.0  0.79696  0.07103  0.27804  1.0000
  O   O949      1.0  0.27805  0.92895  0.20305  1.0000
  O   O950      1.0  0.20304  0.72195  0.07105  1.0000
  O   O951      1.0  0.07103  0.79696  0.27804  1.0000
  O   O952      1.0  0.27805  0.79695  0.07105  1.0000
  O   O953      1.0  0.07105  0.72195  0.20305  1.0000
  O   O954      1.0  0.20304  0.92897  0.27805  1.0000
  O   O955      1.0  0.27805  0.07105  0.79695  1.0000
  O   O956      1.0  0.20305  0.27805  0.92895  1.0000
  O   O957      1.0  0.07105  0.20306  0.72195  1.0000
  O   O958      1.0  0.27805  0.20306  0.92895  1.0000
  O   O959      1.0  0.07105  0.27805  0.79695  1.0000
  O   O960      1.0  0.20305  0.07104  0.72195  1.0000
  O   O961      1.0  0.33322  0.55531  0.17815  1.0000
  O   O962      1.0  0.17817  0.33321  0.55530  1.0000
  O   O963      1.0  0.55531  0.17816  0.33322  1.0000
  O   O964      1.0  0.33321  0.17816  0.55530  1.0000
  O   O965      1.0  0.55531  0.33322  0.17815  1.0000
  O   O966      1.0  0.17817  0.55531  0.33321  1.0000
  O   O967      1.0  0.33321  0.44470  0.82184  1.0000
  O   O968      1.0  0.17816  0.66678  0.44469  1.0000
  O   O969      1.0  0.55531  0.82184  0.66678  1.0000
  O   O970      1.0  0.33322  0.82185  0.44469  1.0000
  O   O971      1.0  0.55531  0.66678  0.82183  1.0000
  O   O972      1.0  0.17817  0.44469  0.66678  1.0000
  O   O973      1.0  0.66679  0.55531  0.82183  1.0000
  O   O974      1.0  0.82185  0.33322  0.44469  1.0000
  O   O975      1.0  0.44469  0.17816  0.66679  1.0000
  O   O976      1.0  0.66678  0.17816  0.44469  1.0000
  O   O977      1.0  0.44470  0.33321  0.82183  1.0000
  O   O978      1.0  0.82185  0.55530  0.66679  1.0000
  O   O979      1.0  0.66678  0.44469  0.17815  1.0000
  O   O980      1.0  0.82185  0.66679  0.55530  1.0000
  O   O981      1.0  0.44469  0.82183  0.33321  1.0000
  O   O982      1.0  0.66679  0.82184  0.55530  1.0000
  O   O983      1.0  0.44470  0.66679  0.17815  1.0000
  O   O984      1.0  0.82185  0.44469  0.33321  1.0000
  O   O985      1.0  0.66678  0.44469  0.82185  1.0000
  O   O986      1.0  0.82183  0.66679  0.44470  1.0000
  O   O987      1.0  0.44469  0.82184  0.66678  1.0000
  O   O988      1.0  0.66679  0.82184  0.44470  1.0000
  O   O989      1.0  0.44469  0.66678  0.82185  1.0000
  O   O990      1.0  0.82183  0.44469  0.66679  1.0000
  O   O991      1.0  0.66679  0.55530  0.17816  1.0000
  O   O992      1.0  0.82184  0.33322  0.55531  1.0000
  O   O993      1.0  0.44469  0.17816  0.33322  1.0000
  O   O994      1.0  0.66678  0.17815  0.55531  1.0000
  O   O995      1.0  0.44469  0.33322  0.17817  1.0000
  O   O996      1.0  0.82183  0.55531  0.33322  1.0000
  O   O997      1.0  0.33321  0.44469  0.17817  1.0000
  O   O998      1.0  0.17815  0.66678  0.55531  1.0000
  O   O999      1.0  0.55531  0.82184  0.33321  1.0000
  O   O1000     1.0  0.33322  0.82184  0.55531  1.0000
  O   O1001     1.0  0.55530  0.66679  0.17817  1.0000
  O   O1002     1.0  0.17815  0.44470  0.33321  1.0000
  O   O1003     1.0  0.33321  0.55531  0.82185  1.0000
  O   O1004     1.0  0.17815  0.33321  0.44470  1.0000
  O   O1005     1.0  0.55531  0.17816  0.66679  1.0000
  O   O1006     1.0  0.33321  0.17816  0.44470  1.0000
  O   O1007     1.0  0.55530  0.33321  0.82185  1.0000
  O   O1008     1.0  0.17815  0.55531  0.66679  1.0000
  O   O1009     1.0  0.83322  0.05531  0.67815  1.0000
  O   O1010     1.0  0.67817  0.83321  0.05530  1.0000
  O   O1011     1.0  0.05531  0.67816  0.83321  1.0000
  O   O1012     1.0  0.83321  0.67816  0.05530  1.0000
  O   O1013     1.0  0.05531  0.83322  0.67815  1.0000
  O   O1014     1.0  0.67817  0.05531  0.83321  1.0000
  O   O1015     1.0  0.83321  0.94470  0.32184  1.0000
  O   O1016     1.0  0.67816  0.16678  0.94469  1.0000
  O   O1017     1.0  0.05531  0.32184  0.16678  1.0000
  O   O1018     1.0  0.83322  0.32185  0.94469  1.0000
  O   O1019     1.0  0.05531  0.16678  0.32183  1.0000
  O   O1020     1.0  0.67817  0.94469  0.16678  1.0000
  O   O1021     1.0  0.16679  0.05531  0.32183  1.0000
  O   O1022     1.0  0.32185  0.83322  0.94469  1.0000
  O   O1023     1.0  0.94469  0.67816  0.16679  1.0000
  O   O1024     1.0  0.16678  0.67816  0.94469  1.0000
  O   O1025     1.0  0.94470  0.83321  0.32183  1.0000
  O   O1026     1.0  0.32185  0.05530  0.16679  1.0000
  O   O1027     1.0  0.16679  0.94469  0.67815  1.0000
  O   O1028     1.0  0.32185  0.16679  0.05530  1.0000
  O   O1029     1.0  0.94469  0.32184  0.83321  1.0000
  O   O1030     1.0  0.16679  0.32184  0.05530  1.0000
  O   O1031     1.0  0.94470  0.16679  0.67815  1.0000
  O   O1032     1.0  0.32185  0.94469  0.83322  1.0000
  O   O1033     1.0  0.16678  0.94469  0.32185  1.0000
  O   O1034     1.0  0.32183  0.16679  0.94470  1.0000
  O   O1035     1.0  0.94469  0.32184  0.16678  1.0000
  O   O1036     1.0  0.16679  0.32184  0.94470  1.0000
  O   O1037     1.0  0.94469  0.16678  0.32185  1.0000
  O   O1038     1.0  0.32183  0.94469  0.16679  1.0000
  O   O1039     1.0  0.16679  0.05530  0.67816  1.0000
  O   O1040     1.0  0.32184  0.83322  0.05531  1.0000
  O   O1041     1.0  0.94469  0.67816  0.83322  1.0000
  O   O1042     1.0  0.16678  0.67815  0.05531  1.0000
  O   O1043     1.0  0.94469  0.83322  0.67817  1.0000
  O   O1044     1.0  0.32183  0.05531  0.83322  1.0000
  O   O1045     1.0  0.83321  0.94469  0.67817  1.0000
  O   O1046     1.0  0.67815  0.16678  0.05531  1.0000
  O   O1047     1.0  0.05531  0.32184  0.83321  1.0000
  O   O1048     1.0  0.83322  0.32184  0.05531  1.0000
  O   O1049     1.0  0.05530  0.16679  0.67817  1.0000
  O   O1050     1.0  0.67815  0.94469  0.83321  1.0000
  O   O1051     1.0  0.83321  0.05531  0.32185  1.0000
  O   O1052     1.0  0.67815  0.83321  0.94470  1.0000
  O   O1053     1.0  0.05531  0.67816  0.16679  1.0000
  O   O1054     1.0  0.83321  0.67816  0.94470  1.0000
  O   O1055     1.0  0.05530  0.83321  0.32185  1.0000
  O   O1056     1.0  0.67815  0.05531  0.16679  1.0000
  O   O1057     1.0  0.33278  0.55512  0.26619  1.0000
  O   O1058     1.0  0.26617  0.33278  0.55513  1.0000
  O   O1059     1.0  0.55512  0.26619  0.33278  1.0000
  O   O1060     1.0  0.33278  0.26618  0.55513  1.0000
  O   O1061     1.0  0.55512  0.33278  0.26620  1.0000
  O   O1062     1.0  0.26618  0.55512  0.33278  1.0000
  O   O1063     1.0  0.33278  0.44488  0.73382  1.0000
  O   O1064     1.0  0.26618  0.66723  0.44488  1.0000
  O   O1065     1.0  0.55512  0.73382  0.66722  1.0000
  O   O1066     1.0  0.33278  0.73382  0.44488  1.0000
  O   O1067     1.0  0.55511  0.66723  0.73383  1.0000
  O   O1068     1.0  0.26618  0.44488  0.66722  1.0000
  O   O1069     1.0  0.66722  0.55512  0.73382  1.0000
  O   O1070     1.0  0.73380  0.33278  0.44488  1.0000
  O   O1071     1.0  0.44487  0.26618  0.66721  1.0000
  O   O1072     1.0  0.66722  0.26618  0.44488  1.0000
  O   O1073     1.0  0.44488  0.33278  0.73383  1.0000
  O   O1074     1.0  0.73381  0.55513  0.66721  1.0000
  O   O1075     1.0  0.66722  0.44487  0.26619  1.0000
  O   O1076     1.0  0.73381  0.66721  0.55513  1.0000
  O   O1077     1.0  0.44487  0.73382  0.33278  1.0000
  O   O1078     1.0  0.66722  0.73381  0.55513  1.0000
  O   O1079     1.0  0.44487  0.66721  0.26619  1.0000
  O   O1080     1.0  0.73381  0.44487  0.33278  1.0000
  O   O1081     1.0  0.66722  0.44488  0.73381  1.0000
  O   O1082     1.0  0.73383  0.66722  0.44487  1.0000
  O   O1083     1.0  0.44488  0.73381  0.66722  1.0000
  O   O1084     1.0  0.66722  0.73382  0.44487  1.0000
  O   O1085     1.0  0.44488  0.66722  0.73380  1.0000
  O   O1086     1.0  0.73382  0.44488  0.66722  1.0000
  O   O1087     1.0  0.66722  0.55512  0.26618  1.0000
  O   O1088     1.0  0.73382  0.33277  0.55512  1.0000
  O   O1089     1.0  0.44488  0.26618  0.33278  1.0000
  O   O1090     1.0  0.66722  0.26618  0.55512  1.0000
  O   O1091     1.0  0.44489  0.33277  0.26617  1.0000
  O   O1092     1.0  0.73382  0.55512  0.33278  1.0000
  O   O1093     1.0  0.33278  0.44488  0.26618  1.0000
  O   O1094     1.0  0.26620  0.66722  0.55512  1.0000
  O   O1095     1.0  0.55513  0.73382  0.33279  1.0000
  O   O1096     1.0  0.33278  0.73382  0.55512  1.0000
  O   O1097     1.0  0.55512  0.66722  0.26617  1.0000
  O   O1098     1.0  0.26619  0.44487  0.33278  1.0000
  O   O1099     1.0  0.33279  0.55513  0.73381  1.0000
  O   O1100     1.0  0.26619  0.33279  0.44487  1.0000
  O   O1101     1.0  0.55513  0.26618  0.66722  1.0000
  O   O1102     1.0  0.33278  0.26619  0.44487  1.0000
  O   O1103     1.0  0.55513  0.33279  0.73381  1.0000
  O   O1104     1.0  0.26619  0.55513  0.66722  1.0000
  O   O1105     1.0  0.83278  0.05512  0.76619  1.0000
  O   O1106     1.0  0.76617  0.83278  0.05513  1.0000
  O   O1107     1.0  0.05512  0.76619  0.83278  1.0000
  O   O1108     1.0  0.83278  0.76618  0.05513  1.0000
  O   O1109     1.0  0.05512  0.83278  0.76620  1.0000
  O   O1110     1.0  0.76618  0.05512  0.83278  1.0000
  O   O1111     1.0  0.83278  0.94488  0.23382  1.0000
  O   O1112     1.0  0.76618  0.16723  0.94488  1.0000
  O   O1113     1.0  0.05512  0.23382  0.16722  1.0000
  O   O1114     1.0  0.83278  0.23382  0.94488  1.0000
  O   O1115     1.0  0.05511  0.16723  0.23383  1.0000
  O   O1116     1.0  0.76618  0.94488  0.16722  1.0000
  O   O1117     1.0  0.16722  0.05512  0.23382  1.0000
  O   O1118     1.0  0.23380  0.83278  0.94488  1.0000
  O   O1119     1.0  0.94487  0.76618  0.16722  1.0000
  O   O1120     1.0  0.16722  0.76618  0.94488  1.0000
  O   O1121     1.0  0.94488  0.83278  0.23383  1.0000
  O   O1122     1.0  0.23381  0.05513  0.16722  1.0000
  O   O1123     1.0  0.16721  0.94487  0.76619  1.0000
  O   O1124     1.0  0.23381  0.16721  0.05513  1.0000
  O   O1125     1.0  0.94487  0.23382  0.83278  1.0000
  O   O1126     1.0  0.16721  0.23381  0.05513  1.0000
  O   O1127     1.0  0.94487  0.16721  0.76619  1.0000
  O   O1128     1.0  0.23381  0.94487  0.83278  1.0000
  O   O1129     1.0  0.16722  0.94488  0.23381  1.0000
  O   O1130     1.0  0.23383  0.16722  0.94487  1.0000
  O   O1131     1.0  0.94488  0.23381  0.16722  1.0000
  O   O1132     1.0  0.16722  0.23382  0.94487  1.0000
  O   O1133     1.0  0.94488  0.16722  0.23380  1.0000
  O   O1134     1.0  0.23382  0.94488  0.16722  1.0000
  O   O1135     1.0  0.16722  0.05512  0.76618  1.0000
  O   O1136     1.0  0.23382  0.83277  0.05512  1.0000
  O   O1137     1.0  0.94488  0.76618  0.83278  1.0000
  O   O1138     1.0  0.16722  0.76618  0.05512  1.0000
  O   O1139     1.0  0.94489  0.83277  0.76617  1.0000
  O   O1140     1.0  0.23382  0.05512  0.83278  1.0000
  O   O1141     1.0  0.83278  0.94488  0.76618  1.0000
  O   O1142     1.0  0.76620  0.16722  0.05512  1.0000
  O   O1143     1.0  0.05513  0.23382  0.83278  1.0000
  O   O1144     1.0  0.83278  0.23382  0.05512  1.0000
  O   O1145     1.0  0.05512  0.16722  0.76617  1.0000
  O   O1146     1.0  0.76619  0.94487  0.83279  1.0000
  O   O1147     1.0  0.83278  0.05513  0.23380  1.0000
  O   O1148     1.0  0.76619  0.83279  0.94487  1.0000
  O   O1149     1.0  0.05513  0.76618  0.16722  1.0000
  O   O1150     1.0  0.83278  0.76619  0.94487  1.0000
  O   O1151     1.0  0.05513  0.83279  0.23381  1.0000
  O   O1152     1.0  0.76619  0.05513  0.16722  1.0000
  O   O1153     1.0  0.93295  0.77737  0.66663  1.0000
  O   O1154     1.0  0.66664  0.93294  0.77737  1.0000
  O   O1155     1.0  0.77737  0.66664  0.93293  1.0000
  O   O1156     1.0  0.93295  0.66663  0.77737  1.0000
  O   O1157     1.0  0.77737  0.93294  0.66664  1.0000
  O   O1158     1.0  0.66664  0.77736  0.93293  1.0000
  O   O1159     1.0  0.93295  0.22264  0.33336  1.0000
  O   O1160     1.0  0.66665  0.06706  0.22263  1.0000
  O   O1161     1.0  0.77737  0.33336  0.06705  1.0000
  O   O1162     1.0  0.93295  0.33336  0.22263  1.0000
  O   O1163     1.0  0.77737  0.06706  0.33336  1.0000
  O   O1164     1.0  0.66665  0.22264  0.06705  1.0000
  O   O1165     1.0  0.06707  0.77737  0.33336  1.0000
  O   O1166     1.0  0.33336  0.93293  0.22263  1.0000
  O   O1167     1.0  0.22263  0.66664  0.06705  1.0000
  O   O1168     1.0  0.06707  0.66664  0.22263  1.0000
  O   O1169     1.0  0.22263  0.93295  0.33336  1.0000
  O   O1170     1.0  0.33337  0.77737  0.06705  1.0000
  O   O1171     1.0  0.06707  0.22262  0.66663  1.0000
  O   O1172     1.0  0.33337  0.06706  0.77737  1.0000
  O   O1173     1.0  0.22263  0.33337  0.93294  1.0000
  O   O1174     1.0  0.06707  0.33336  0.77737  1.0000
  O   O1175     1.0  0.22263  0.06706  0.66663  1.0000
  O   O1176     1.0  0.33337  0.22263  0.93293  1.0000
  O   O1177     1.0  0.06705  0.22263  0.33337  1.0000
  O   O1178     1.0  0.33336  0.06706  0.22263  1.0000
  O   O1179     1.0  0.22263  0.33336  0.06707  1.0000
  O   O1180     1.0  0.06705  0.33337  0.22263  1.0000
  O   O1181     1.0  0.22263  0.06706  0.33337  1.0000
  O   O1182     1.0  0.33336  0.22264  0.06707  1.0000
  O   O1183     1.0  0.06705  0.77736  0.66664  1.0000
  O   O1184     1.0  0.33336  0.93294  0.77737  1.0000
  O   O1185     1.0  0.22263  0.66664  0.93295  1.0000
  O   O1186     1.0  0.06706  0.66664  0.77737  1.0000
  O   O1187     1.0  0.22263  0.93294  0.66664  1.0000
  O   O1188     1.0  0.33336  0.77736  0.93295  1.0000
  O   O1189     1.0  0.93293  0.22263  0.66664  1.0000
  O   O1190     1.0  0.66664  0.06706  0.77737  1.0000
  O   O1191     1.0  0.77737  0.33336  0.93295  1.0000
  O   O1192     1.0  0.93293  0.33336  0.77737  1.0000
  O   O1193     1.0  0.77737  0.06705  0.66664  1.0000
  O   O1194     1.0  0.66663  0.22263  0.93295  1.0000
  O   O1195     1.0  0.93293  0.77738  0.33337  1.0000
  O   O1196     1.0  0.66664  0.93294  0.22263  1.0000
  O   O1197     1.0  0.77737  0.66663  0.06706  1.0000
  O   O1198     1.0  0.93293  0.66664  0.22263  1.0000
  O   O1199     1.0  0.77737  0.93294  0.33337  1.0000
  O   O1200     1.0  0.66663  0.77737  0.06707  1.0000
  O   O1201     1.0  0.43295  0.27737  0.16663  1.0000
  O   O1202     1.0  0.16664  0.43294  0.27737  1.0000
  O   O1203     1.0  0.27737  0.16664  0.43293  1.0000
  O   O1204     1.0  0.43295  0.16663  0.27737  1.0000
  O   O1205     1.0  0.27737  0.43294  0.16663  1.0000
  O   O1206     1.0  0.16664  0.27736  0.43293  1.0000
  O   O1207     1.0  0.43295  0.72264  0.83336  1.0000
  O   O1208     1.0  0.16665  0.56706  0.72263  1.0000
  O   O1209     1.0  0.27737  0.83336  0.56705  1.0000
  O   O1210     1.0  0.43294  0.83336  0.72263  1.0000
  O   O1211     1.0  0.27737  0.56706  0.83336  1.0000
  O   O1212     1.0  0.16664  0.72264  0.56705  1.0000
  O   O1213     1.0  0.56706  0.27737  0.83336  1.0000
  O   O1214     1.0  0.83336  0.43294  0.72263  1.0000
  O   O1215     1.0  0.72263  0.16664  0.56705  1.0000
  O   O1216     1.0  0.56707  0.16664  0.72263  1.0000
  O   O1217     1.0  0.72263  0.43295  0.83336  1.0000
  O   O1218     1.0  0.83337  0.27737  0.56705  1.0000
  O   O1219     1.0  0.56707  0.72262  0.16663  1.0000
  O   O1220     1.0  0.83336  0.56706  0.27737  1.0000
  O   O1221     1.0  0.72263  0.83336  0.43294  1.0000
  O   O1222     1.0  0.56707  0.83336  0.27737  1.0000
  O   O1223     1.0  0.72263  0.56706  0.16663  1.0000
  O   O1224     1.0  0.83337  0.72263  0.43293  1.0000
  O   O1225     1.0  0.56705  0.72263  0.83337  1.0000
  O   O1226     1.0  0.83336  0.56706  0.72263  1.0000
  O   O1227     1.0  0.72263  0.83336  0.56707  1.0000
  O   O1228     1.0  0.56705  0.83336  0.72263  1.0000
  O   O1229     1.0  0.72263  0.56706  0.83337  1.0000
  O   O1230     1.0  0.83336  0.72264  0.56707  1.0000
  O   O1231     1.0  0.56705  0.27736  0.16664  1.0000
  O   O1232     1.0  0.83336  0.43294  0.27737  1.0000
  O   O1233     1.0  0.72263  0.16664  0.43295  1.0000
  O   O1234     1.0  0.56705  0.16664  0.27737  1.0000
  O   O1235     1.0  0.72263  0.43294  0.16664  1.0000
  O   O1236     1.0  0.83335  0.27736  0.43295  1.0000
  O   O1237     1.0  0.43294  0.72263  0.16664  1.0000
  O   O1238     1.0  0.16664  0.56706  0.27737  1.0000
  O   O1239     1.0  0.27737  0.83336  0.43295  1.0000
  O   O1240     1.0  0.43293  0.83336  0.27737  1.0000
  O   O1241     1.0  0.27737  0.56705  0.16664  1.0000
  O   O1242     1.0  0.16663  0.72263  0.43295  1.0000
  O   O1243     1.0  0.43293  0.27738  0.83337  1.0000
  O   O1244     1.0  0.16664  0.43294  0.72263  1.0000
  O   O1245     1.0  0.27737  0.16663  0.56706  1.0000
  O   O1246     1.0  0.43293  0.16664  0.72263  1.0000
  O   O1247     1.0  0.27737  0.43294  0.83337  1.0000
  O   O1248     1.0  0.16663  0.27737  0.56707  1.0000
  O   O1249     1.0  0.94490  0.83346  0.45650  1.0000
  O   O1250     1.0  0.45647  0.94491  0.83346  1.0000
  O   O1251     1.0  0.83346  0.45648  0.94491  1.0000
  O   O1252     1.0  0.94490  0.45648  0.83346  1.0000
  O   O1253     1.0  0.83346  0.94491  0.45649  1.0000
  O   O1254     1.0  0.45647  0.83346  0.94491  1.0000
  O   O1255     1.0  0.94490  0.16653  0.54353  1.0000
  O   O1256     1.0  0.45647  0.05510  0.16654  1.0000
  O   O1257     1.0  0.83346  0.54352  0.05510  1.0000
  O   O1258     1.0  0.94490  0.54353  0.16654  1.0000
  O   O1259     1.0  0.83346  0.05510  0.54353  1.0000
  O   O1260     1.0  0.45647  0.16654  0.05510  1.0000
  O   O1261     1.0  0.05509  0.83346  0.54354  1.0000
  O   O1262     1.0  0.54351  0.94491  0.16654  1.0000
  O   O1263     1.0  0.16654  0.45648  0.05510  1.0000
  O   O1264     1.0  0.05509  0.45648  0.16655  1.0000
  O   O1265     1.0  0.16654  0.94490  0.54353  1.0000
  O   O1266     1.0  0.54351  0.83347  0.05511  1.0000
  O   O1267     1.0  0.05509  0.16655  0.45649  1.0000
  O   O1268     1.0  0.54351  0.05510  0.83346  1.0000
  O   O1269     1.0  0.16654  0.54351  0.94491  1.0000
  O   O1270     1.0  0.05509  0.54353  0.83346  1.0000
  O   O1271     1.0  0.16655  0.05509  0.45649  1.0000
  O   O1272     1.0  0.54351  0.16655  0.94491  1.0000
  O   O1273     1.0  0.05510  0.16654  0.54350  1.0000
  O   O1274     1.0  0.54353  0.05509  0.16654  1.0000
  O   O1275     1.0  0.16655  0.54352  0.05509  1.0000
  O   O1276     1.0  0.05510  0.54352  0.16654  1.0000
  O   O1277     1.0  0.16654  0.05509  0.54351  1.0000
  O   O1278     1.0  0.54353  0.16654  0.05509  1.0000
  O   O1279     1.0  0.05510  0.83347  0.45647  1.0000
  O   O1280     1.0  0.54353  0.94490  0.83346  1.0000
  O   O1281     1.0  0.16654  0.45648  0.94490  1.0000
  O   O1282     1.0  0.05510  0.45647  0.83346  1.0000
  O   O1283     1.0  0.16654  0.94490  0.45647  1.0000
  O   O1284     1.0  0.54353  0.83346  0.94490  1.0000
  O   O1285     1.0  0.94491  0.16654  0.45646  1.0000
  O   O1286     1.0  0.45649  0.05509  0.83346  1.0000
  O   O1287     1.0  0.83346  0.54352  0.94490  1.0000
  O   O1288     1.0  0.94491  0.54352  0.83345  1.0000
  O   O1289     1.0  0.83346  0.05510  0.45647  1.0000
  O   O1290     1.0  0.45649  0.16653  0.94489  1.0000
  O   O1291     1.0  0.94491  0.83345  0.54351  1.0000
  O   O1292     1.0  0.45649  0.94490  0.16654  1.0000
  O   O1293     1.0  0.83346  0.45649  0.05509  1.0000
  O   O1294     1.0  0.94491  0.45647  0.16654  1.0000
  O   O1295     1.0  0.83345  0.94491  0.54351  1.0000
  O   O1296     1.0  0.45649  0.83345  0.05509  1.0000
  O   O1297     1.0  0.44490  0.33346  0.95650  1.0000
  O   O1298     1.0  0.95647  0.44491  0.33346  1.0000
  O   O1299     1.0  0.33345  0.95648  0.44491  1.0000
  O   O1300     1.0  0.44490  0.95648  0.33346  1.0000
  O   O1301     1.0  0.33346  0.44491  0.95649  1.0000
  O   O1302     1.0  0.95647  0.33346  0.44491  1.0000
  O   O1303     1.0  0.44490  0.66653  0.04353  1.0000
  O   O1304     1.0  0.95647  0.55510  0.66654  1.0000
  O   O1305     1.0  0.33346  0.04352  0.55510  1.0000
  O   O1306     1.0  0.44490  0.04353  0.66654  1.0000
  O   O1307     1.0  0.33346  0.55510  0.04353  1.0000
  O   O1308     1.0  0.95647  0.66654  0.55510  1.0000
  O   O1309     1.0  0.55509  0.33346  0.04354  1.0000
  O   O1310     1.0  0.04351  0.44491  0.66654  1.0000
  O   O1311     1.0  0.66654  0.95648  0.55510  1.0000
  O   O1312     1.0  0.55509  0.95648  0.66655  1.0000
  O   O1313     1.0  0.66654  0.44490  0.04354  1.0000
  O   O1314     1.0  0.04351  0.33347  0.55511  1.0000
  O   O1315     1.0  0.55509  0.66655  0.95649  1.0000
  O   O1316     1.0  0.04351  0.55510  0.33346  1.0000
  O   O1317     1.0  0.66654  0.04351  0.44491  1.0000
  O   O1318     1.0  0.55509  0.04353  0.33346  1.0000
  O   O1319     1.0  0.66655  0.55509  0.95649  1.0000
  O   O1320     1.0  0.04351  0.66655  0.44491  1.0000
  O   O1321     1.0  0.55510  0.66654  0.04350  1.0000
  O   O1322     1.0  0.04353  0.55509  0.66654  1.0000
  O   O1323     1.0  0.66655  0.04352  0.55509  1.0000
  O   O1324     1.0  0.55510  0.04352  0.66654  1.0000
  O   O1325     1.0  0.66654  0.55509  0.04351  1.0000
  O   O1326     1.0  0.04353  0.66655  0.55509  1.0000
  O   O1327     1.0  0.55510  0.33347  0.95647  1.0000
  O   O1328     1.0  0.04353  0.44490  0.33346  1.0000
  O   O1329     1.0  0.66654  0.95649  0.44490  1.0000
  O   O1330     1.0  0.55510  0.95647  0.33346  1.0000
  O   O1331     1.0  0.66654  0.44490  0.95646  1.0000
  O   O1332     1.0  0.04353  0.33346  0.44490  1.0000
  O   O1333     1.0  0.44491  0.66654  0.95646  1.0000
  O   O1334     1.0  0.95649  0.55509  0.33346  1.0000
  O   O1335     1.0  0.33346  0.04352  0.44490  1.0000
  O   O1336     1.0  0.44491  0.04352  0.33345  1.0000
  O   O1337     1.0  0.33346  0.55510  0.95647  1.0000
  O   O1338     1.0  0.95649  0.66653  0.44489  1.0000
  O   O1339     1.0  0.44491  0.33345  0.04351  1.0000
  O   O1340     1.0  0.95649  0.44490  0.66654  1.0000
  O   O1341     1.0  0.33346  0.95649  0.55509  1.0000
  O   O1342     1.0  0.44491  0.95647  0.66654  1.0000
  O   O1343     1.0  0.33345  0.44491  0.04351  1.0000
  O   O1344     1.0  0.95649  0.33345  0.55509  1.0000
  O   O1345     1.0  0.77790  0.93292  0.44429  1.0000
  O   O1346     1.0  0.44429  0.77790  0.93290  1.0000
  O   O1347     1.0  0.93292  0.44429  0.77790  1.0000
  O   O1348     1.0  0.77790  0.44429  0.93291  1.0000
  O   O1349     1.0  0.93292  0.77791  0.44429  1.0000
  O   O1350     1.0  0.44429  0.93291  0.77790  1.0000
  O   O1351     1.0  0.77790  0.06709  0.55570  1.0000
  O   O1352     1.0  0.44430  0.22210  0.06707  1.0000
  O   O1353     1.0  0.93292  0.55570  0.22210  1.0000
  O   O1354     1.0  0.77790  0.55571  0.06708  1.0000
  O   O1355     1.0  0.93293  0.22210  0.55570  1.0000
  O   O1356     1.0  0.44430  0.06708  0.22210  1.0000
  O   O1357     1.0  0.22210  0.93292  0.55570  1.0000
  O   O1358     1.0  0.55572  0.77791  0.06707  1.0000
  O   O1359     1.0  0.06710  0.44429  0.22210  1.0000
  O   O1360     1.0  0.22210  0.44429  0.06708  1.0000
  O   O1361     1.0  0.06710  0.77790  0.55570  1.0000
  O   O1362     1.0  0.55571  0.93291  0.22210  1.0000
  O   O1363     1.0  0.22210  0.06709  0.44429  1.0000
  O   O1364     1.0  0.55572  0.22209  0.93290  1.0000
  O   O1365     1.0  0.06710  0.55571  0.77790  1.0000
  O   O1366     1.0  0.22209  0.55571  0.93291  1.0000
  O   O1367     1.0  0.06710  0.22209  0.44428  1.0000
  O   O1368     1.0  0.55571  0.06709  0.77790  1.0000
  O   O1369     1.0  0.22210  0.06708  0.55571  1.0000
  O   O1370     1.0  0.55571  0.22210  0.06710  1.0000
  O   O1371     1.0  0.06708  0.55571  0.22210  1.0000
  O   O1372     1.0  0.22210  0.55571  0.06709  1.0000
  O   O1373     1.0  0.06708  0.22209  0.55571  1.0000
  O   O1374     1.0  0.55571  0.06709  0.22210  1.0000
  O   O1375     1.0  0.22210  0.93292  0.44430  1.0000
  O   O1376     1.0  0.55570  0.77790  0.93293  1.0000
  O   O1377     1.0  0.06708  0.44430  0.77790  1.0000
  O   O1378     1.0  0.22210  0.44429  0.93292  1.0000
  O   O1379     1.0  0.06707  0.77790  0.44430  1.0000
  O   O1380     1.0  0.55570  0.93292  0.77790  1.0000
  O   O1381     1.0  0.77790  0.06708  0.44430  1.0000
  O   O1382     1.0  0.44428  0.22209  0.93293  1.0000
  O   O1383     1.0  0.93290  0.55571  0.77790  1.0000
  O   O1384     1.0  0.77790  0.55571  0.93292  1.0000
  O   O1385     1.0  0.93290  0.22210  0.44430  1.0000
  O   O1386     1.0  0.44429  0.06709  0.77790  1.0000
  O   O1387     1.0  0.77790  0.93291  0.55571  1.0000
  O   O1388     1.0  0.44428  0.77791  0.06710  1.0000
  O   O1389     1.0  0.93290  0.44429  0.22210  1.0000
  O   O1390     1.0  0.77791  0.44429  0.06710  1.0000
  O   O1391     1.0  0.93290  0.77791  0.55572  1.0000
  O   O1392     1.0  0.44429  0.93291  0.22210  1.0000
  O   O1393     1.0  0.27790  0.43292  0.94429  1.0000
  O   O1394     1.0  0.94429  0.27790  0.43290  1.0000
  O   O1395     1.0  0.43292  0.94429  0.27790  1.0000
  O   O1396     1.0  0.27790  0.94429  0.43291  1.0000
  O   O1397     1.0  0.43292  0.27791  0.94429  1.0000
  O   O1398     1.0  0.94429  0.43291  0.27790  1.0000
  O   O1399     1.0  0.27790  0.56709  0.05570  1.0000
  O   O1400     1.0  0.94430  0.72210  0.56707  1.0000
  O   O1401     1.0  0.43292  0.05570  0.72210  1.0000
  O   O1402     1.0  0.27790  0.05571  0.56708  1.0000
  O   O1403     1.0  0.43293  0.72210  0.05570  1.0000
  O   O1404     1.0  0.94430  0.56708  0.72210  1.0000
  O   O1405     1.0  0.72210  0.43292  0.05570  1.0000
  O   O1406     1.0  0.05572  0.27791  0.56707  1.0000
  O   O1407     1.0  0.56710  0.94429  0.72210  1.0000
  O   O1408     1.0  0.72210  0.94429  0.56708  1.0000
  O   O1409     1.0  0.56710  0.27790  0.05570  1.0000
  O   O1410     1.0  0.05571  0.43291  0.72210  1.0000
  O   O1411     1.0  0.72210  0.56709  0.94429  1.0000
  O   O1412     1.0  0.05572  0.72209  0.43290  1.0000
  O   O1413     1.0  0.56710  0.05571  0.27790  1.0000
  O   O1414     1.0  0.72209  0.05571  0.43291  1.0000
  O   O1415     1.0  0.56710  0.72209  0.94428  1.0000
  O   O1416     1.0  0.05571  0.56709  0.27791  1.0000
  O   O1417     1.0  0.72210  0.56708  0.05571  1.0000
  O   O1418     1.0  0.05571  0.72210  0.56710  1.0000
  O   O1419     1.0  0.56708  0.05571  0.72210  1.0000
  O   O1420     1.0  0.72210  0.05571  0.56709  1.0000
  O   O1421     1.0  0.56708  0.72210  0.05571  1.0000
  O   O1422     1.0  0.05571  0.56709  0.72210  1.0000
  O   O1423     1.0  0.72210  0.43292  0.94430  1.0000
  O   O1424     1.0  0.05570  0.27790  0.43293  1.0000
  O   O1425     1.0  0.56708  0.94430  0.27790  1.0000
  O   O1426     1.0  0.72210  0.94429  0.43292  1.0000
  O   O1427     1.0  0.56707  0.27790  0.94430  1.0000
  O   O1428     1.0  0.05570  0.43292  0.27790  1.0000
  O   O1429     1.0  0.27790  0.56708  0.94430  1.0000
  O   O1430     1.0  0.94428  0.72209  0.43293  1.0000
  O   O1431     1.0  0.43290  0.05571  0.27790  1.0000
  O   O1432     1.0  0.27790  0.05571  0.43292  1.0000
  O   O1433     1.0  0.43290  0.72210  0.94430  1.0000
  O   O1434     1.0  0.94429  0.56709  0.27790  1.0000
  O   O1435     1.0  0.27790  0.43291  0.05571  1.0000
  O   O1436     1.0  0.94428  0.27791  0.56710  1.0000
  O   O1437     1.0  0.43290  0.94429  0.72210  1.0000
  O   O1438     1.0  0.27791  0.94429  0.56710  1.0000
  O   O1439     1.0  0.43290  0.27791  0.05572  1.0000
  O   O1440     1.0  0.94429  0.43291  0.72210  1.0000
  O   O1441     1.0  0.77805  0.66635  0.84503  1.0000
  O   O1442     1.0  0.84502  0.77804  0.66636  1.0000
  O   O1443     1.0  0.66635  0.84503  0.77805  1.0000
  O   O1444     1.0  0.77805  0.84503  0.66636  1.0000
  O   O1445     1.0  0.66635  0.77805  0.84504  1.0000
  O   O1446     1.0  0.84502  0.66636  0.77805  1.0000
  O   O1447     1.0  0.77805  0.33365  0.15499  1.0000
  O   O1448     1.0  0.84501  0.22195  0.33365  1.0000
  O   O1449     1.0  0.66635  0.15498  0.22194  1.0000
  O   O1450     1.0  0.77806  0.15497  0.33365  1.0000
  O   O1451     1.0  0.66635  0.22195  0.15499  1.0000
  O   O1452     1.0  0.84502  0.33364  0.22195  1.0000
  O   O1453     1.0  0.22195  0.66635  0.15498  1.0000
  O   O1454     1.0  0.15497  0.77806  0.33365  1.0000
  O   O1455     1.0  0.33364  0.84503  0.22195  1.0000
  O   O1456     1.0  0.22194  0.84503  0.33365  1.0000
  O   O1457     1.0  0.33364  0.77804  0.15499  1.0000
  O   O1458     1.0  0.15497  0.66635  0.22195  1.0000
  O   O1459     1.0  0.22195  0.33364  0.84503  1.0000
  O   O1460     1.0  0.15496  0.22195  0.66636  1.0000
  O   O1461     1.0  0.33364  0.15498  0.77805  1.0000
  O   O1462     1.0  0.22195  0.15497  0.66636  1.0000
  O   O1463     1.0  0.33364  0.22195  0.84504  1.0000
  O   O1464     1.0  0.15497  0.33365  0.77805  1.0000
  O   O1465     1.0  0.22195  0.33365  0.15497  1.0000
  O   O1466     1.0  0.15498  0.22196  0.33364  1.0000
  O   O1467     1.0  0.33365  0.15497  0.22195  1.0000
  O   O1468     1.0  0.22195  0.15497  0.33364  1.0000
  O   O1469     1.0  0.33365  0.22194  0.15496  1.0000
  O   O1470     1.0  0.15498  0.33364  0.22196  1.0000
  O   O1471     1.0  0.22195  0.66635  0.84501  1.0000
  O   O1472     1.0  0.15499  0.77805  0.66635  1.0000
  O   O1473     1.0  0.33365  0.84502  0.77805  1.0000
  O   O1474     1.0  0.22194  0.84503  0.66635  1.0000
  O   O1475     1.0  0.33365  0.77805  0.84501  1.0000
  O   O1476     1.0  0.15498  0.66635  0.77805  1.0000
  O   O1477     1.0  0.77805  0.33365  0.84502  1.0000
  O   O1478     1.0  0.84503  0.22194  0.66635  1.0000
  O   O1479     1.0  0.66636  0.15497  0.77805  1.0000
  O   O1480     1.0  0.77806  0.15497  0.66635  1.0000
  O   O1481     1.0  0.66636  0.22196  0.84501  1.0000
  O   O1482     1.0  0.84503  0.33365  0.77805  1.0000
  O   O1483     1.0  0.77805  0.66635  0.15497  1.0000
  O   O1484     1.0  0.84504  0.77805  0.33364  1.0000
  O   O1485     1.0  0.66636  0.84502  0.22195  1.0000
  O   O1486     1.0  0.77805  0.84503  0.33364  1.0000
  O   O1487     1.0  0.66636  0.77805  0.15496  1.0000
  O   O1488     1.0  0.84503  0.66635  0.22195  1.0000
  O   O1489     1.0  0.27805  0.16635  0.34503  1.0000
  O   O1490     1.0  0.34501  0.27804  0.16636  1.0000
  O   O1491     1.0  0.16635  0.34503  0.27806  1.0000
  O   O1492     1.0  0.27805  0.34503  0.16636  1.0000
  O   O1493     1.0  0.16635  0.27806  0.34504  1.0000
  O   O1494     1.0  0.34502  0.16636  0.27804  1.0000
  O   O1495     1.0  0.27805  0.83365  0.65499  1.0000
  O   O1496     1.0  0.34501  0.72195  0.83365  1.0000
  O   O1497     1.0  0.16635  0.65498  0.72194  1.0000
  O   O1498     1.0  0.27806  0.65497  0.83365  1.0000
  O   O1499     1.0  0.16635  0.72195  0.65499  1.0000
  O   O1500     1.0  0.34502  0.83365  0.72195  1.0000
  O   O1501     1.0  0.72195  0.16635  0.65498  1.0000
  O   O1502     1.0  0.65497  0.27806  0.83365  1.0000
  O   O1503     1.0  0.83364  0.34503  0.72195  1.0000
  O   O1504     1.0  0.72194  0.34503  0.83365  1.0000
  O   O1505     1.0  0.83364  0.27804  0.65499  1.0000
  O   O1506     1.0  0.65497  0.16635  0.72195  1.0000
  O   O1507     1.0  0.72195  0.83364  0.34503  1.0000
  O   O1508     1.0  0.65496  0.72195  0.16636  1.0000
  O   O1509     1.0  0.83364  0.65498  0.27805  1.0000
  O   O1510     1.0  0.72195  0.65497  0.16636  1.0000
  O   O1511     1.0  0.83364  0.72195  0.34504  1.0000
  O   O1512     1.0  0.65497  0.83365  0.27805  1.0000
  O   O1513     1.0  0.72195  0.83365  0.65497  1.0000
  O   O1514     1.0  0.65498  0.72196  0.83364  1.0000
  O   O1515     1.0  0.83365  0.65497  0.72194  1.0000
  O   O1516     1.0  0.72195  0.65497  0.83364  1.0000
  O   O1517     1.0  0.83365  0.72194  0.65496  1.0000
  O   O1518     1.0  0.65498  0.83364  0.72196  1.0000
  O   O1519     1.0  0.72195  0.16635  0.34501  1.0000
  O   O1520     1.0  0.65499  0.27805  0.16635  1.0000
  O   O1521     1.0  0.83365  0.34502  0.27806  1.0000
  O   O1522     1.0  0.72194  0.34503  0.16635  1.0000
  O   O1523     1.0  0.83365  0.27805  0.34501  1.0000
  O   O1524     1.0  0.65498  0.16635  0.27805  1.0000
  O   O1525     1.0  0.27805  0.83365  0.34502  1.0000
  O   O1526     1.0  0.34503  0.72194  0.16635  1.0000
  O   O1527     1.0  0.16636  0.65497  0.27805  1.0000
  O   O1528     1.0  0.27806  0.65498  0.16635  1.0000
  O   O1529     1.0  0.16636  0.72196  0.34501  1.0000
  O   O1530     1.0  0.34503  0.83365  0.27805  1.0000
  O   O1531     1.0  0.27805  0.16636  0.65497  1.0000
  O   O1532     1.0  0.34504  0.27805  0.83364  1.0000
  O   O1533     1.0  0.16636  0.34502  0.72195  1.0000
  O   O1534     1.0  0.27805  0.34503  0.83364  1.0000
  O   O1535     1.0  0.16636  0.27805  0.65496  1.0000
  O   O1536     1.0  0.34503  0.16635  0.72195  1.0000
  O   O1537     1.0  0.74142  0.11113  0.34896  1.0000
  O   O1538     1.0  0.34895  0.74142  0.11113  1.0000
  O   O1539     1.0  0.11113  0.34896  0.74140  1.0000
  O   O1540     1.0  0.74142  0.34894  0.11113  1.0000
  O   O1541     1.0  0.11113  0.74141  0.34896  1.0000
  O   O1542     1.0  0.34895  0.11113  0.74141  1.0000
  O   O1543     1.0  0.74141  0.88887  0.65105  1.0000
  O   O1544     1.0  0.34896  0.25860  0.88887  1.0000
  O   O1545     1.0  0.11113  0.65105  0.25860  1.0000
  O   O1546     1.0  0.74140  0.65105  0.88887  1.0000
  O   O1547     1.0  0.11113  0.25860  0.65104  1.0000
  O   O1548     1.0  0.34896  0.88887  0.25859  1.0000
  O   O1549     1.0  0.25859  0.11113  0.65104  1.0000
  O   O1550     1.0  0.65104  0.74140  0.88887  1.0000
  O   O1551     1.0  0.88887  0.34894  0.25858  1.0000
  O   O1552     1.0  0.25860  0.34895  0.88887  1.0000
  O   O1553     1.0  0.88887  0.74142  0.65105  1.0000
  O   O1554     1.0  0.65105  0.11113  0.25858  1.0000
  O   O1555     1.0  0.25858  0.88887  0.34895  1.0000
  O   O1556     1.0  0.65106  0.25858  0.11113  1.0000
  O   O1557     1.0  0.88887  0.65106  0.74142  1.0000
  O   O1558     1.0  0.25858  0.65105  0.11113  1.0000
  O   O1559     1.0  0.88887  0.25858  0.34895  1.0000
  O   O1560     1.0  0.65104  0.88887  0.74141  1.0000
  O   O1561     1.0  0.25858  0.88887  0.65104  1.0000
  O   O1562     1.0  0.65105  0.25858  0.88887  1.0000
  O   O1563     1.0  0.88887  0.65104  0.25860  1.0000
  O   O1564     1.0  0.25858  0.65106  0.88887  1.0000
  O   O1565     1.0  0.88887  0.25859  0.65104  1.0000
  O   O1566     1.0  0.65105  0.88887  0.25859  1.0000
  O   O1567     1.0  0.25859  0.11113  0.34895  1.0000
  O   O1568     1.0  0.65104  0.74140  0.11113  1.0000
  O   O1569     1.0  0.88887  0.34895  0.74140  1.0000
  O   O1570     1.0  0.25860  0.34895  0.11113  1.0000
  O   O1571     1.0  0.88887  0.74140  0.34896  1.0000
  O   O1572     1.0  0.65104  0.11113  0.74141  1.0000
  O   O1573     1.0  0.74141  0.88887  0.34896  1.0000
  O   O1574     1.0  0.34896  0.25860  0.11113  1.0000
  O   O1575     1.0  0.11113  0.65105  0.74141  1.0000
  O   O1576     1.0  0.74140  0.65105  0.11113  1.0000
  O   O1577     1.0  0.11113  0.25858  0.34895  1.0000
  O   O1578     1.0  0.34895  0.88887  0.74142  1.0000
  O   O1579     1.0  0.74142  0.11113  0.65105  1.0000
  O   O1580     1.0  0.34894  0.74142  0.88887  1.0000
  O   O1581     1.0  0.11113  0.34894  0.25858  1.0000
  O   O1582     1.0  0.74142  0.34895  0.88887  1.0000
  O   O1583     1.0  0.11113  0.74143  0.65106  1.0000
  O   O1584     1.0  0.34896  0.11113  0.25859  1.0000
  O   O1585     1.0  0.24142  0.61113  0.84896  1.0000
  O   O1586     1.0  0.84895  0.24142  0.61113  1.0000
  O   O1587     1.0  0.61113  0.84895  0.24140  1.0000
  O   O1588     1.0  0.24142  0.84894  0.61113  1.0000
  O   O1589     1.0  0.61113  0.24141  0.84896  1.0000
  O   O1590     1.0  0.84895  0.61113  0.24141  1.0000
  O   O1591     1.0  0.24141  0.38887  0.15105  1.0000
  O   O1592     1.0  0.84896  0.75860  0.38887  1.0000
  O   O1593     1.0  0.61113  0.15105  0.75860  1.0000
  O   O1594     1.0  0.24140  0.15105  0.38887  1.0000
  O   O1595     1.0  0.61113  0.75860  0.15104  1.0000
  O   O1596     1.0  0.84896  0.38887  0.75859  1.0000
  O   O1597     1.0  0.75859  0.61113  0.15104  1.0000
  O   O1598     1.0  0.15104  0.24140  0.38887  1.0000
  O   O1599     1.0  0.38887  0.84895  0.75858  1.0000
  O   O1600     1.0  0.75860  0.84895  0.38887  1.0000
  O   O1601     1.0  0.38887  0.24142  0.15105  1.0000
  O   O1602     1.0  0.15105  0.61113  0.75858  1.0000
  O   O1603     1.0  0.75858  0.38887  0.84895  1.0000
  O   O1604     1.0  0.15106  0.75858  0.61113  1.0000
  O   O1605     1.0  0.38887  0.15106  0.24142  1.0000
  O   O1606     1.0  0.75858  0.15105  0.61113  1.0000
  O   O1607     1.0  0.38887  0.75858  0.84894  1.0000
  O   O1608     1.0  0.15104  0.38887  0.24141  1.0000
  O   O1609     1.0  0.75858  0.38887  0.15104  1.0000
  O   O1610     1.0  0.15105  0.75858  0.38887  1.0000
  O   O1611     1.0  0.38887  0.15105  0.75860  1.0000
  O   O1612     1.0  0.75858  0.15106  0.38887  1.0000
  O   O1613     1.0  0.38887  0.75859  0.15104  1.0000
  O   O1614     1.0  0.15105  0.38887  0.75859  1.0000
  O   O1615     1.0  0.75859  0.61113  0.84895  1.0000
  O   O1616     1.0  0.15104  0.24140  0.61113  1.0000
  O   O1617     1.0  0.38887  0.84895  0.24140  1.0000
  O   O1618     1.0  0.75860  0.84895  0.61113  1.0000
  O   O1619     1.0  0.38887  0.24140  0.84896  1.0000
  O   O1620     1.0  0.15104  0.61113  0.24141  1.0000
  O   O1621     1.0  0.24141  0.38887  0.84896  1.0000
  O   O1622     1.0  0.84896  0.75860  0.61113  1.0000
  O   O1623     1.0  0.61113  0.15106  0.24142  1.0000
  O   O1624     1.0  0.24140  0.15105  0.61113  1.0000
  O   O1625     1.0  0.61113  0.75858  0.84895  1.0000
  O   O1626     1.0  0.84895  0.38887  0.24142  1.0000
  O   O1627     1.0  0.24142  0.61113  0.15105  1.0000
  O   O1628     1.0  0.84894  0.24142  0.38887  1.0000
  O   O1629     1.0  0.61113  0.84894  0.75858  1.0000
  O   O1630     1.0  0.24142  0.84895  0.38887  1.0000
  O   O1631     1.0  0.61113  0.24142  0.15106  1.0000
  O   O1632     1.0  0.84896  0.61113  0.75859  1.0000
  O   O1633     1.0  0.61111  0.07111  0.24162  1.0000
  O   O1634     1.0  0.24164  0.61111  0.07111  1.0000
  O   O1635     1.0  0.07110  0.24165  0.61110  1.0000
  O   O1636     1.0  0.61111  0.24163  0.07111  1.0000
  O   O1637     1.0  0.07111  0.61111  0.24164  1.0000
  O   O1638     1.0  0.24165  0.07110  0.61111  1.0000
  O   O1639     1.0  0.61111  0.92889  0.75837  1.0000
  O   O1640     1.0  0.24164  0.38889  0.92890  1.0000
  O   O1641     1.0  0.07111  0.75837  0.38889  1.0000
  O   O1642     1.0  0.61111  0.75838  0.92889  1.0000
  O   O1643     1.0  0.07111  0.38889  0.75837  1.0000
  O   O1644     1.0  0.24163  0.92890  0.38889  1.0000
  O   O1645     1.0  0.38889  0.07110  0.75836  1.0000
  O   O1646     1.0  0.75837  0.61111  0.92889  1.0000
  O   O1647     1.0  0.92889  0.24163  0.38889  1.0000
  O   O1648     1.0  0.38889  0.24165  0.92890  1.0000
  O   O1649     1.0  0.92890  0.61111  0.75836  1.0000
  O   O1650     1.0  0.75837  0.07110  0.38889  1.0000
  O   O1651     1.0  0.38889  0.92890  0.24164  1.0000
  O   O1652     1.0  0.75836  0.38889  0.07110  1.0000
  O   O1653     1.0  0.92890  0.75835  0.61111  1.0000
  O   O1654     1.0  0.38889  0.75835  0.07110  1.0000
  O   O1655     1.0  0.92889  0.38889  0.24163  1.0000
  O   O1656     1.0  0.75835  0.92890  0.61111  1.0000
  O   O1657     1.0  0.38889  0.92889  0.75837  1.0000
  O   O1658     1.0  0.75836  0.38889  0.92889  1.0000
  O   O1659     1.0  0.92890  0.75835  0.38890  1.0000
  O   O1660     1.0  0.38889  0.75837  0.92889  1.0000
  O   O1661     1.0  0.92889  0.38889  0.75836  1.0000
  O   O1662     1.0  0.75835  0.92890  0.38889  1.0000
  O   O1663     1.0  0.38889  0.07110  0.24163  1.0000
  O   O1664     1.0  0.75836  0.61111  0.07110  1.0000
  O   O1665     1.0  0.92889  0.24163  0.61111  1.0000
  O   O1666     1.0  0.38889  0.24162  0.07111  1.0000
  O   O1667     1.0  0.92889  0.61111  0.24163  1.0000
  O   O1668     1.0  0.75837  0.07110  0.61111  1.0000
  O   O1669     1.0  0.61111  0.92890  0.24164  1.0000
  O   O1670     1.0  0.24163  0.38889  0.07111  1.0000
  O   O1671     1.0  0.07111  0.75837  0.61111  1.0000
  O   O1672     1.0  0.61111  0.75835  0.07110  1.0000
  O   O1673     1.0  0.07110  0.38889  0.24164  1.0000
  O   O1674     1.0  0.24163  0.92890  0.61111  1.0000
  O   O1675     1.0  0.61111  0.07110  0.75836  1.0000
  O   O1676     1.0  0.24164  0.61111  0.92890  1.0000
  O   O1677     1.0  0.07110  0.24165  0.38889  1.0000
  O   O1678     1.0  0.61111  0.24165  0.92890  1.0000
  O   O1679     1.0  0.07111  0.61111  0.75837  1.0000
  O   O1680     1.0  0.24165  0.07110  0.38889  1.0000
  O   O1681     1.0  0.11111  0.57111  0.74162  1.0000
  O   O1682     1.0  0.74164  0.11111  0.57111  1.0000
  O   O1683     1.0  0.57110  0.74165  0.11110  1.0000
  O   O1684     1.0  0.11111  0.74163  0.57111  1.0000
  O   O1685     1.0  0.57111  0.11111  0.74164  1.0000
  O   O1686     1.0  0.74165  0.57110  0.11111  1.0000
  O   O1687     1.0  0.11111  0.42890  0.25837  1.0000
  O   O1688     1.0  0.74164  0.88889  0.42890  1.0000
  O   O1689     1.0  0.57111  0.25837  0.88889  1.0000
  O   O1690     1.0  0.11111  0.25838  0.42889  1.0000
  O   O1691     1.0  0.57111  0.88889  0.25837  1.0000
  O   O1692     1.0  0.74163  0.42890  0.88889  1.0000
  O   O1693     1.0  0.88889  0.57110  0.25836  1.0000
  O   O1694     1.0  0.25837  0.11111  0.42889  1.0000
  O   O1695     1.0  0.42889  0.74163  0.88889  1.0000
  O   O1696     1.0  0.88889  0.74165  0.42890  1.0000
  O   O1697     1.0  0.42890  0.11111  0.25836  1.0000
  O   O1698     1.0  0.25837  0.57110  0.88889  1.0000
  O   O1699     1.0  0.88889  0.42890  0.74164  1.0000
  O   O1700     1.0  0.25836  0.88889  0.57111  1.0000
  O   O1701     1.0  0.42890  0.25835  0.11111  1.0000
  O   O1702     1.0  0.88889  0.25835  0.57110  1.0000
  O   O1703     1.0  0.42889  0.88889  0.74163  1.0000
  O   O1704     1.0  0.25835  0.42890  0.11111  1.0000
  O   O1705     1.0  0.88889  0.42889  0.25837  1.0000
  O   O1706     1.0  0.25836  0.88889  0.42890  1.0000
  O   O1707     1.0  0.42890  0.25835  0.88890  1.0000
  O   O1708     1.0  0.88889  0.25837  0.42889  1.0000
  O   O1709     1.0  0.42889  0.88889  0.25836  1.0000
  O   O1710     1.0  0.25835  0.42890  0.88889  1.0000
  O   O1711     1.0  0.88889  0.57110  0.74163  1.0000
  O   O1712     1.0  0.25836  0.11111  0.57110  1.0000
  O   O1713     1.0  0.42889  0.74163  0.11111  1.0000
  O   O1714     1.0  0.88889  0.74162  0.57111  1.0000
  O   O1715     1.0  0.42889  0.11111  0.74163  1.0000
  O   O1716     1.0  0.25837  0.57110  0.11111  1.0000
  O   O1717     1.0  0.11111  0.42890  0.74164  1.0000
  O   O1718     1.0  0.74163  0.88889  0.57111  1.0000
  O   O1719     1.0  0.57111  0.25837  0.11111  1.0000
  O   O1720     1.0  0.11111  0.25835  0.57110  1.0000
  O   O1721     1.0  0.57110  0.88889  0.74164  1.0000
  O   O1722     1.0  0.74163  0.42890  0.11111  1.0000
  O   O1723     1.0  0.11111  0.57110  0.25836  1.0000
  O   O1724     1.0  0.74164  0.11111  0.42889  1.0000
  O   O1725     1.0  0.57110  0.74165  0.88889  1.0000
  O   O1726     1.0  0.11111  0.74165  0.42890  1.0000
  O   O1727     1.0  0.57111  0.11111  0.25837  1.0000
  O   O1728     1.0  0.74165  0.57110  0.88889  1.0000
  O   O1729     1.0  0.88941  0.53976  0.18559  1.0000
  O   O1730     1.0  0.18559  0.88941  0.53976  1.0000
  O   O1731     1.0  0.53976  0.18557  0.88941  1.0000
  O   O1732     1.0  0.88941  0.18560  0.53976  1.0000
  O   O1733     1.0  0.53976  0.88941  0.18558  1.0000
  O   O1734     1.0  0.18558  0.53976  0.88941  1.0000
  O   O1735     1.0  0.88941  0.46023  0.81441  1.0000
  O   O1736     1.0  0.18558  0.11059  0.46024  1.0000
  O   O1737     1.0  0.53977  0.81440  0.11059  1.0000
  O   O1738     1.0  0.88941  0.81441  0.46023  1.0000
  O   O1739     1.0  0.53976  0.11059  0.81441  1.0000
  O   O1740     1.0  0.18559  0.46023  0.11059  1.0000
  O   O1741     1.0  0.11059  0.53976  0.81443  1.0000
  O   O1742     1.0  0.81441  0.88941  0.46024  1.0000
  O   O1743     1.0  0.46024  0.18560  0.11059  1.0000
  O   O1744     1.0  0.11059  0.18557  0.46024  1.0000
  O   O1745     1.0  0.46024  0.88941  0.81442  1.0000
  O   O1746     1.0  0.81441  0.53977  0.11059  1.0000
  O   O1747     1.0  0.11059  0.46024  0.18557  1.0000
  O   O1748     1.0  0.81442  0.11059  0.53975  1.0000
  O   O1749     1.0  0.46025  0.81443  0.88941  1.0000
  O   O1750     1.0  0.11059  0.81442  0.53975  1.0000
  O   O1751     1.0  0.46024  0.11059  0.18559  1.0000
  O   O1752     1.0  0.81442  0.46024  0.88941  1.0000
  O   O1753     1.0  0.11059  0.46024  0.81441  1.0000
  O   O1754     1.0  0.81441  0.11059  0.46024  1.0000
  O   O1755     1.0  0.46025  0.81443  0.11059  1.0000
  O   O1756     1.0  0.11059  0.81440  0.46024  1.0000
  O   O1757     1.0  0.46024  0.11059  0.81442  1.0000
  O   O1758     1.0  0.81442  0.46024  0.11059  1.0000
  O   O1759     1.0  0.11059  0.53977  0.18559  1.0000
  O   O1760     1.0  0.81442  0.88941  0.53976  1.0000
  O   O1761     1.0  0.46023  0.18560  0.88941  1.0000
  O   O1762     1.0  0.11059  0.18559  0.53977  1.0000
  O   O1763     1.0  0.46024  0.88941  0.18559  1.0000
  O   O1764     1.0  0.81440  0.53977  0.88941  1.0000
  O   O1765     1.0  0.88941  0.46024  0.18557  1.0000
  O   O1766     1.0  0.18559  0.11059  0.53976  1.0000
  O   O1767     1.0  0.53976  0.81440  0.88941  1.0000
  O   O1768     1.0  0.88941  0.81443  0.53976  1.0000
  O   O1769     1.0  0.53976  0.11059  0.18558  1.0000
  O   O1770     1.0  0.18559  0.46023  0.88941  1.0000
  O   O1771     1.0  0.88941  0.53976  0.81442  1.0000
  O   O1772     1.0  0.18559  0.88941  0.46025  1.0000
  O   O1773     1.0  0.53975  0.18557  0.11059  1.0000
  O   O1774     1.0  0.88941  0.18557  0.46025  1.0000
  O   O1775     1.0  0.53976  0.88941  0.81441  1.0000
  O   O1776     1.0  0.18558  0.53976  0.11059  1.0000
  O   O1777     1.0  0.38941  0.03976  0.68559  1.0000
  O   O1778     1.0  0.68559  0.38941  0.03976  1.0000
  O   O1779     1.0  0.03975  0.68557  0.38941  1.0000
  O   O1780     1.0  0.38941  0.68560  0.03976  1.0000
  O   O1781     1.0  0.03976  0.38941  0.68558  1.0000
  O   O1782     1.0  0.68558  0.03976  0.38941  1.0000
  O   O1783     1.0  0.38941  0.96023  0.31441  1.0000
  O   O1784     1.0  0.68558  0.61059  0.96024  1.0000
  O   O1785     1.0  0.03977  0.31440  0.61059  1.0000
  O   O1786     1.0  0.38941  0.31441  0.96023  1.0000
  O   O1787     1.0  0.03976  0.61059  0.31441  1.0000
  O   O1788     1.0  0.68560  0.96023  0.61059  1.0000
  O   O1789     1.0  0.61059  0.03976  0.31443  1.0000
  O   O1790     1.0  0.31441  0.38941  0.96024  1.0000
  O   O1791     1.0  0.96023  0.68560  0.61059  1.0000
  O   O1792     1.0  0.61059  0.68557  0.96024  1.0000
  O   O1793     1.0  0.96024  0.38941  0.31442  1.0000
  O   O1794     1.0  0.31441  0.03977  0.61059  1.0000
  O   O1795     1.0  0.61059  0.96024  0.68558  1.0000
  O   O1796     1.0  0.31441  0.61059  0.03975  1.0000
  O   O1797     1.0  0.96025  0.31443  0.38941  1.0000
  O   O1798     1.0  0.61059  0.31442  0.03975  1.0000
  O   O1799     1.0  0.96024  0.61059  0.68559  1.0000
  O   O1800     1.0  0.31442  0.96024  0.38941  1.0000
  O   O1801     1.0  0.61059  0.96024  0.31441  1.0000
  O   O1802     1.0  0.31441  0.61059  0.96024  1.0000
  O   O1803     1.0  0.96025  0.31443  0.61059  1.0000
  O   O1804     1.0  0.61059  0.31440  0.96024  1.0000
  O   O1805     1.0  0.96025  0.61059  0.31442  1.0000
  O   O1806     1.0  0.31442  0.96024  0.61059  1.0000
  O   O1807     1.0  0.61059  0.03977  0.68559  1.0000
  O   O1808     1.0  0.31442  0.38941  0.03976  1.0000
  O   O1809     1.0  0.96023  0.68560  0.38941  1.0000
  O   O1810     1.0  0.61059  0.68559  0.03977  1.0000
  O   O1811     1.0  0.96024  0.38941  0.68559  1.0000
  O   O1812     1.0  0.31440  0.03977  0.38941  1.0000
  O   O1813     1.0  0.38941  0.96024  0.68557  1.0000
  O   O1814     1.0  0.68559  0.61059  0.03976  1.0000
  O   O1815     1.0  0.03977  0.31440  0.38941  1.0000
  O   O1816     1.0  0.38941  0.31443  0.03976  1.0000
  O   O1817     1.0  0.03976  0.61059  0.68558  1.0000
  O   O1818     1.0  0.68559  0.96023  0.38941  1.0000
  O   O1819     1.0  0.38941  0.03976  0.31443  1.0000
  O   O1820     1.0  0.68559  0.38941  0.96025  1.0000
  O   O1821     1.0  0.03975  0.68557  0.61059  1.0000
  O   O1822     1.0  0.38941  0.68558  0.96025  1.0000
  O   O1823     1.0  0.03976  0.38941  0.31441  1.0000
  O   O1824     1.0  0.68558  0.03976  0.61059  1.0000
  O   O1825     1.0  0.34533  0.27858  0.05594  1.0000
  O   O1826     1.0  0.05595  0.34532  0.27859  1.0000
  O   O1827     1.0  0.27858  0.05595  0.34531  1.0000
  O   O1828     1.0  0.34533  0.05595  0.27858  1.0000
  O   O1829     1.0  0.27858  0.34532  0.05594  1.0000
  O   O1830     1.0  0.05595  0.27859  0.34531  1.0000
  O   O1831     1.0  0.34533  0.72141  0.94404  1.0000
  O   O1832     1.0  0.05595  0.65468  0.72142  1.0000
  O   O1833     1.0  0.27858  0.94405  0.65467  1.0000
  O   O1834     1.0  0.34533  0.94405  0.72142  1.0000
  O   O1835     1.0  0.27859  0.65469  0.94405  1.0000
  O   O1836     1.0  0.05596  0.72141  0.65467  1.0000
  O   O1837     1.0  0.65469  0.27859  0.94405  1.0000
  O   O1838     1.0  0.94405  0.34531  0.72142  1.0000
  O   O1839     1.0  0.72142  0.05595  0.65467  1.0000
  O   O1840     1.0  0.65469  0.05595  0.72142  1.0000
  O   O1841     1.0  0.72141  0.34532  0.94404  1.0000
  O   O1842     1.0  0.94405  0.27858  0.65467  1.0000
  O   O1843     1.0  0.65469  0.72142  0.05594  1.0000
  O   O1844     1.0  0.94405  0.65468  0.27858  1.0000
  O   O1845     1.0  0.72142  0.94405  0.34531  1.0000
  O   O1846     1.0  0.65469  0.94405  0.27858  1.0000
  O   O1847     1.0  0.72142  0.65468  0.05594  1.0000
  O   O1848     1.0  0.94406  0.72142  0.34530  1.0000
  O   O1849     1.0  0.65467  0.72142  0.94406  1.0000
  O   O1850     1.0  0.94405  0.65468  0.72141  1.0000
  O   O1851     1.0  0.72142  0.94405  0.65469  1.0000
  O   O1852     1.0  0.65467  0.94405  0.72142  1.0000
  O   O1853     1.0  0.72142  0.65468  0.94406  1.0000
  O   O1854     1.0  0.94405  0.72141  0.65470  1.0000
  O   O1855     1.0  0.65467  0.27859  0.05596  1.0000
  O   O1856     1.0  0.94405  0.34533  0.27859  1.0000
  O   O1857     1.0  0.72142  0.05595  0.34533  1.0000
  O   O1858     1.0  0.65467  0.05595  0.27858  1.0000
  O   O1859     1.0  0.72141  0.34531  0.05595  1.0000
  O   O1860     1.0  0.94404  0.27859  0.34533  1.0000
  O   O1861     1.0  0.34531  0.72141  0.05595  1.0000
  O   O1862     1.0  0.05595  0.65469  0.27858  1.0000
  O   O1863     1.0  0.27858  0.94405  0.34533  1.0000
  O   O1864     1.0  0.34531  0.94405  0.27858  1.0000
  O   O1865     1.0  0.27859  0.65468  0.05596  1.0000
  O   O1866     1.0  0.05595  0.72142  0.34533  1.0000
  O   O1867     1.0  0.34531  0.27858  0.94406  1.0000
  O   O1868     1.0  0.05595  0.34532  0.72142  1.0000
  O   O1869     1.0  0.27858  0.05595  0.65469  1.0000
  O   O1870     1.0  0.34531  0.05595  0.72142  1.0000
  O   O1871     1.0  0.27858  0.34532  0.94406  1.0000
  O   O1872     1.0  0.05594  0.27858  0.65470  1.0000
  O   O1873     1.0  0.84533  0.77858  0.55594  1.0000
  O   O1874     1.0  0.55595  0.84532  0.77859  1.0000
  O   O1875     1.0  0.77858  0.55595  0.84531  1.0000
  O   O1876     1.0  0.84533  0.55595  0.77858  1.0000
  O   O1877     1.0  0.77858  0.84532  0.55594  1.0000
  O   O1878     1.0  0.55595  0.77859  0.84531  1.0000
  O   O1879     1.0  0.84533  0.22141  0.44404  1.0000
  O   O1880     1.0  0.55595  0.15467  0.22142  1.0000
  O   O1881     1.0  0.77858  0.44405  0.15467  1.0000
  O   O1882     1.0  0.84533  0.44405  0.22142  1.0000
  O   O1883     1.0  0.77859  0.15468  0.44405  1.0000
  O   O1884     1.0  0.55596  0.22141  0.15467  1.0000
  O   O1885     1.0  0.15469  0.77859  0.44405  1.0000
  O   O1886     1.0  0.44405  0.84532  0.22142  1.0000
  O   O1887     1.0  0.22142  0.55595  0.15467  1.0000
  O   O1888     1.0  0.15469  0.55595  0.22142  1.0000
  O   O1889     1.0  0.22141  0.84532  0.44404  1.0000
  O   O1890     1.0  0.44405  0.77858  0.15467  1.0000
  O   O1891     1.0  0.15469  0.22142  0.55594  1.0000
  O   O1892     1.0  0.44405  0.15468  0.77858  1.0000
  O   O1893     1.0  0.22142  0.44405  0.84531  1.0000
  O   O1894     1.0  0.15469  0.44405  0.77858  1.0000
  O   O1895     1.0  0.22142  0.15468  0.55594  1.0000
  O   O1896     1.0  0.44406  0.22142  0.84530  1.0000
  O   O1897     1.0  0.15467  0.22142  0.44406  1.0000
  O   O1898     1.0  0.44405  0.15468  0.22141  1.0000
  O   O1899     1.0  0.22142  0.44405  0.15469  1.0000
  O   O1900     1.0  0.15467  0.44405  0.22142  1.0000
  O   O1901     1.0  0.22142  0.15468  0.44406  1.0000
  O   O1902     1.0  0.44405  0.22141  0.15469  1.0000
  O   O1903     1.0  0.15467  0.77859  0.55596  1.0000
  O   O1904     1.0  0.44405  0.84532  0.77858  1.0000
  O   O1905     1.0  0.22142  0.55595  0.84533  1.0000
  O   O1906     1.0  0.15467  0.55595  0.77858  1.0000
  O   O1907     1.0  0.22141  0.84531  0.55595  1.0000
  O   O1908     1.0  0.44404  0.77859  0.84533  1.0000
  O   O1909     1.0  0.84531  0.22141  0.55595  1.0000
  O   O1910     1.0  0.55595  0.15469  0.77858  1.0000
  O   O1911     1.0  0.77858  0.44405  0.84533  1.0000
  O   O1912     1.0  0.84531  0.44405  0.77858  1.0000
  O   O1913     1.0  0.77859  0.15468  0.55596  1.0000
  O   O1914     1.0  0.55595  0.22142  0.84533  1.0000
  O   O1915     1.0  0.84531  0.77858  0.44406  1.0000
  O   O1916     1.0  0.55595  0.84532  0.22142  1.0000
  O   O1917     1.0  0.77858  0.55595  0.15469  1.0000
  O   O1918     1.0  0.84531  0.55595  0.22142  1.0000
  O   O1919     1.0  0.77858  0.84532  0.44406  1.0000
  O   O1920     1.0  0.55594  0.77858  0.15470  1.0000
  O   O1921     1.0  0.81787  0.35287  0.50000  1.0000
  O   O1922     1.0  0.50000  0.81788  0.35289  1.0000
  O   O1923     1.0  0.35289  0.50000  0.81787  1.0000
  O   O1924     1.0  0.81787  0.50000  0.35288  1.0000
  O   O1925     1.0  0.35287  0.81788  0.50000  1.0000
  O   O1926     1.0  0.50000  0.35290  0.81788  1.0000
  O   O1927     1.0  0.81788  0.64710  0.50000  1.0000
  O   O1928     1.0  0.50000  0.18212  0.64711  1.0000
  O   O1929     1.0  0.35289  0.50000  0.18213  1.0000
  O   O1930     1.0  0.81787  0.50000  0.64711  1.0000
  O   O1931     1.0  0.35289  0.18212  0.50000  1.0000
  O   O1932     1.0  0.50000  0.64710  0.18212  1.0000
  O   O1933     1.0  0.18212  0.35290  0.50000  1.0000
  O   O1934     1.0  0.50000  0.81787  0.64713  1.0000
  O   O1935     1.0  0.64711  0.50000  0.18213  1.0000
  O   O1936     1.0  0.18213  0.50000  0.64712  1.0000
  O   O1937     1.0  0.64711  0.81788  0.50000  1.0000
  O   O1938     1.0  0.50000  0.35287  0.18213  1.0000
  O   O1939     1.0  0.18213  0.64713  0.50000  1.0000
  O   O1940     1.0  0.50000  0.18213  0.35287  1.0000
  O   O1941     1.0  0.64711  0.50000  0.81787  1.0000
  O   O1942     1.0  0.18213  0.50000  0.35289  1.0000
  O   O1943     1.0  0.64713  0.18212  0.50000  1.0000
  O   O1944     1.0  0.50000  0.64713  0.81787  1.0000
  O   O1945     1.0  0.31787  0.85287  1.00000  1.0000
  O   O1946     1.0  0.00000  0.31788  0.85289  1.0000
  O   O1947     1.0  0.85289  0.00000  0.31787  1.0000
  O   O1948     1.0  0.31787  1.00000  0.85288  1.0000
  O   O1949     1.0  0.85287  0.31788  0.00000  1.0000
  O   O1950     1.0  0.00000  0.85290  0.31788  1.0000
  O   O1951     1.0  0.31788  0.14710  0.00000  1.0000
  O   O1952     1.0  1.00000  0.68212  0.14711  1.0000
  O   O1953     1.0  0.85289  0.00000  0.68213  1.0000
  O   O1954     1.0  0.31787  0.00000  0.14711  1.0000
  O   O1955     1.0  0.85289  0.68212  1.00000  1.0000
  O   O1956     1.0  1.00000  0.14710  0.68212  1.0000
  O   O1957     1.0  0.68212  0.85290  1.00000  1.0000
  O   O1958     1.0  1.00000  0.31787  0.14713  1.0000
  O   O1959     1.0  0.14711  1.00000  0.68213  1.0000
  O   O1960     1.0  0.68213  0.00000  0.14712  1.0000
  O   O1961     1.0  0.14711  0.31788  0.00000  1.0000
  O   O1962     1.0  0.00000  0.85287  0.68213  1.0000
  O   O1963     1.0  0.68213  0.14713  0.00000  1.0000
  O   O1964     1.0  0.00000  0.68213  0.85287  1.0000
  O   O1965     1.0  0.14711  1.00000  0.31787  1.0000
  O   O1966     1.0  0.68213  1.00000  0.85289  1.0000
  O   O1967     1.0  0.14713  0.68212  1.00000  1.0000
  O   O1968     1.0  1.00000  0.14712  0.31787  1.0000
  O   O1969     1.0  0.92925  0.79667  0.50000  1.0000
  O   O1970     1.0  0.50000  0.92926  0.79670  1.0000
  O   O1971     1.0  0.79669  0.50000  0.92925  1.0000
  O   O1972     1.0  0.92925  0.50000  0.79669  1.0000
  O   O1973     1.0  0.79668  0.92925  0.50000  1.0000
  O   O1974     1.0  0.50000  0.79670  0.92926  1.0000
  O   O1975     1.0  0.92927  0.20330  0.50000  1.0000
  O   O1976     1.0  0.50000  0.07074  0.20330  1.0000
  O   O1977     1.0  0.79668  0.50000  0.07075  1.0000
  O   O1978     1.0  0.92926  0.50000  0.20331  1.0000
  O   O1979     1.0  0.79670  0.07073  0.50000  1.0000
  O   O1980     1.0  0.50000  0.20330  0.07074  1.0000
  O   O1981     1.0  0.07073  0.79670  0.50000  1.0000
  O   O1982     1.0  0.50000  0.92925  0.20332  1.0000
  O   O1983     1.0  0.20331  0.50000  0.07075  1.0000
  O   O1984     1.0  0.07075  0.50000  0.20331  1.0000
  O   O1985     1.0  0.20330  0.92927  0.50000  1.0000
  O   O1986     1.0  0.50000  0.79668  0.07075  1.0000
  O   O1987     1.0  0.07075  0.20333  0.50000  1.0000
  O   O1988     1.0  0.50000  0.07075  0.79668  1.0000
  O   O1989     1.0  0.20332  0.50000  0.92925  1.0000
  O   O1990     1.0  0.07074  0.50000  0.79670  1.0000
  O   O1991     1.0  0.20332  0.07075  0.50000  1.0000
  O   O1992     1.0  0.50000  0.20332  0.92925  1.0000
  O   O1993     1.0  0.42925  0.29667  1.00000  1.0000
  O   O1994     1.0  1.00000  0.42926  0.29670  1.0000
  O   O1995     1.0  0.29669  0.00000  0.42925  1.0000
  O   O1996     1.0  0.42925  1.00000  0.29669  1.0000
  O   O1997     1.0  0.29668  0.42925  0.00000  1.0000
  O   O1998     1.0  1.00000  0.29670  0.42926  1.0000
  O   O1999     1.0  0.42927  0.70330  0.00000  1.0000
  O   O2000     1.0  0.00000  0.57074  0.70330  1.0000
  O   O2001     1.0  0.29668  1.00000  0.57075  1.0000
  O   O2002     1.0  0.42926  1.00000  0.70330  1.0000
  O   O2003     1.0  0.29670  0.57073  1.00000  1.0000
  O   O2004     1.0  0.00000  0.70330  0.57074  1.0000
  O   O2005     1.0  0.57073  0.29670  1.00000  1.0000
  O   O2006     1.0  1.00000  0.42925  0.70332  1.0000
  O   O2007     1.0  0.70331  1.00000  0.57075  1.0000
  O   O2008     1.0  0.57075  0.00000  0.70331  1.0000
  O   O2009     1.0  0.70330  0.42927  0.00000  1.0000
  O   O2010     1.0  0.00000  0.29667  0.57075  1.0000
  O   O2011     1.0  0.57075  0.70333  0.00000  1.0000
  O   O2012     1.0  0.00000  0.57075  0.29668  1.0000
  O   O2013     1.0  0.70332  0.00000  0.42925  1.0000
  O   O2014     1.0  0.57074  0.00000  0.29670  1.0000
  O   O2015     1.0  0.70332  0.57075  1.00000  1.0000
  O   O2016     1.0  1.00000  0.70332  0.42925  1.0000
  O   O2017     1.0  0.57140  0.07514  1.00000  1.0000
  O   O2018     1.0  1.00000  0.57140  0.07512  1.0000
  O   O2019     1.0  0.07513  0.00000  0.57140  1.0000
  O   O2020     1.0  0.57140  0.00000  0.07513  1.0000
  O   O2021     1.0  0.07514  0.57139  0.00000  1.0000
  O   O2022     1.0  0.00000  0.07512  0.57140  1.0000
  O   O2023     1.0  0.57141  0.92488  0.00000  1.0000
  O   O2024     1.0  0.00000  0.42860  0.92488  1.0000
  O   O2025     1.0  0.07513  0.00000  0.42860  1.0000
  O   O2026     1.0  0.57141  1.00000  0.92487  1.0000
  O   O2027     1.0  0.07512  0.42860  1.00000  1.0000
  O   O2028     1.0  1.00000  0.92488  0.42860  1.0000
  O   O2029     1.0  0.42859  0.07512  0.00000  1.0000
  O   O2030     1.0  1.00000  0.57140  0.92486  1.0000
  O   O2031     1.0  0.92487  1.00000  0.42860  1.0000
  O   O2032     1.0  0.42860  0.00000  0.92487  1.0000
  O   O2033     1.0  0.92488  0.57140  0.00000  1.0000
  O   O2034     1.0  0.00000  0.07514  0.42860  1.0000
  O   O2035     1.0  0.42860  0.92486  0.00000  1.0000
  O   O2036     1.0  0.00000  0.42860  0.07514  1.0000
  O   O2037     1.0  0.92487  1.00000  0.57140  1.0000
  O   O2038     1.0  0.42859  0.00000  0.07513  1.0000
  O   O2039     1.0  0.92486  0.42861  1.00000  1.0000
  O   O2040     1.0  1.00000  0.92486  0.57140  1.0000
  O   O2041     1.0  0.07140  0.57514  0.50000  1.0000
  O   O2042     1.0  0.50000  0.07140  0.57512  1.0000
  O   O2043     1.0  0.57513  0.50000  0.07141  1.0000
  O   O2044     1.0  0.07140  0.50000  0.57513  1.0000
  O   O2045     1.0  0.57514  0.07139  0.50000  1.0000
  O   O2046     1.0  0.50000  0.57513  0.07140  1.0000
  O   O2047     1.0  0.07141  0.42488  0.50000  1.0000
  O   O2048     1.0  0.50000  0.92860  0.42488  1.0000
  O   O2049     1.0  0.57513  0.50000  0.92860  1.0000
  O   O2050     1.0  0.07141  0.50000  0.42487  1.0000
  O   O2051     1.0  0.57512  0.92860  0.50000  1.0000
  O   O2052     1.0  0.50000  0.42488  0.92860  1.0000
  O   O2053     1.0  0.92859  0.57512  0.50000  1.0000
  O   O2054     1.0  0.50000  0.07140  0.42486  1.0000
  O   O2055     1.0  0.42487  0.50000  0.92860  1.0000
  O   O2056     1.0  0.92860  0.50000  0.42487  1.0000
  O   O2057     1.0  0.42488  0.07140  0.50000  1.0000
  O   O2058     1.0  0.50000  0.57514  0.92860  1.0000
  O   O2059     1.0  0.92860  0.42486  0.50000  1.0000
  O   O2060     1.0  0.50000  0.92860  0.57514  1.0000
  O   O2061     1.0  0.42487  0.50000  0.07140  1.0000
  O   O2062     1.0  0.92859  0.50000  0.57513  1.0000
  O   O2063     1.0  0.42486  0.92861  0.50000  1.0000
  O   O2064     1.0  0.50000  0.42486  0.07140  1.0000
  O   O2065     1.0  0.53989  0.14642  0.00000  1.0000
  O   O2066     1.0  0.00000  0.53988  0.14644  1.0000
  O   O2067     1.0  0.14643  1.00000  0.53988  1.0000
  O   O2068     1.0  0.53988  0.00000  0.14643  1.0000
  O   O2069     1.0  0.14643  0.53989  0.00000  1.0000
  O   O2070     1.0  1.00000  0.14644  0.53988  1.0000
  O   O2071     1.0  0.53988  0.85355  0.00000  1.0000
  O   O2072     1.0  1.00000  0.46012  0.85356  1.0000
  O   O2073     1.0  0.14643  1.00000  0.46012  1.0000
  O   O2074     1.0  0.53988  0.00000  0.85356  1.0000
  O   O2075     1.0  0.14644  0.46011  0.00000  1.0000
  O   O2076     1.0  0.00000  0.85356  0.46012  1.0000
  O   O2077     1.0  0.46012  0.14645  1.00000  1.0000
  O   O2078     1.0  0.00000  0.53989  0.85357  1.0000
  O   O2079     1.0  0.85357  0.00000  0.46012  1.0000
  O   O2080     1.0  0.46012  1.00000  0.85357  1.0000
  O   O2081     1.0  0.85356  0.53989  1.00000  1.0000
  O   O2082     1.0  1.00000  0.14642  0.46011  1.0000
  O   O2083     1.0  0.46011  0.85358  1.00000  1.0000
  O   O2084     1.0  1.00000  0.46011  0.14643  1.0000
  O   O2085     1.0  0.85357  0.00000  0.53988  1.0000
  O   O2086     1.0  0.46012  1.00000  0.14644  1.0000
  O   O2087     1.0  0.85357  0.46011  1.00000  1.0000
  O   O2088     1.0  0.00000  0.85358  0.53989  1.0000
  O   O2089     1.0  0.03989  0.64642  0.50000  1.0000
  O   O2090     1.0  0.50000  0.03988  0.64645  1.0000
  O   O2091     1.0  0.64644  0.50000  0.03988  1.0000
  O   O2092     1.0  0.03988  0.50000  0.64643  1.0000
  O   O2093     1.0  0.64643  0.03989  0.50000  1.0000
  O   O2094     1.0  0.50000  0.64644  0.03988  1.0000
  O   O2095     1.0  0.03988  0.35355  0.50000  1.0000
  O   O2096     1.0  0.50000  0.96012  0.35356  1.0000
  O   O2097     1.0  0.64643  0.50000  0.96012  1.0000
  O   O2098     1.0  0.03988  0.50000  0.35356  1.0000
  O   O2099     1.0  0.64644  0.96011  0.50000  1.0000
  O   O2100     1.0  0.50000  0.35356  0.96012  1.0000
  O   O2101     1.0  0.96012  0.64645  0.50000  1.0000
  O   O2102     1.0  0.50000  0.03989  0.35357  1.0000
  O   O2103     1.0  0.35356  0.50000  0.96012  1.0000
  O   O2104     1.0  0.96012  0.50000  0.35357  1.0000
  O   O2105     1.0  0.35356  0.03989  0.50000  1.0000
  O   O2106     1.0  0.50000  0.64642  0.96011  1.0000
  O   O2107     1.0  0.96010  0.35358  0.50000  1.0000
  O   O2108     1.0  0.50000  0.96011  0.64643  1.0000
  O   O2109     1.0  0.35357  0.50000  0.03988  1.0000
  O   O2110     1.0  0.96012  0.50000  0.64644  1.0000
  O   O2111     1.0  0.35357  0.96011  0.50000  1.0000
  O   O2112     1.0  0.50000  0.35357  0.03989  1.0000
  O   O2113     1.0  0.84872  0.57498  0.50000  1.0000
  O   O2114     1.0  0.50000  0.84873  0.57497  1.0000
  O   O2115     1.0  0.57497  0.50000  0.84873  1.0000
  O   O2116     1.0  0.84873  0.50000  0.57498  1.0000
  O   O2117     1.0  0.57498  0.84872  0.50000  1.0000
  O   O2118     1.0  0.50000  0.57497  0.84873  1.0000
  O   O2119     1.0  0.84873  0.42503  0.50000  1.0000
  O   O2120     1.0  0.50000  0.15127  0.42504  1.0000
  O   O2121     1.0  0.57498  0.50000  0.15127  1.0000
  O   O2122     1.0  0.84873  0.50000  0.42503  1.0000
  O   O2123     1.0  0.57497  0.15128  0.50000  1.0000
  O   O2124     1.0  0.50000  0.42503  0.15127  1.0000
  O   O2125     1.0  0.15127  0.57497  0.50000  1.0000
  O   O2126     1.0  0.50000  0.84872  0.42502  1.0000
  O   O2127     1.0  0.42503  0.50000  0.15127  1.0000
  O   O2128     1.0  0.15127  0.50000  0.42502  1.0000
  O   O2129     1.0  0.42503  0.84872  0.50000  1.0000
  O   O2130     1.0  0.50000  0.57499  0.15128  1.0000
  O   O2131     1.0  0.15128  0.42502  0.50000  1.0000
  O   O2132     1.0  0.50000  0.15128  0.57498  1.0000
  O   O2133     1.0  0.42502  0.50000  0.84873  1.0000
  O   O2134     1.0  0.15127  0.50000  0.57497  1.0000
  O   O2135     1.0  0.42502  0.15128  0.50000  1.0000
  O   O2136     1.0  0.50000  0.42501  0.84872  1.0000
  O   O2137     1.0  0.34872  0.07499  1.00000  1.0000
  O   O2138     1.0  1.00000  0.34873  0.07497  1.0000
  O   O2139     1.0  0.07497  0.00000  0.34873  1.0000
  O   O2140     1.0  0.34873  1.00000  0.07498  1.0000
  O   O2141     1.0  0.07498  0.34871  0.00000  1.0000
  O   O2142     1.0  0.00000  0.07497  0.34873  1.0000
  O   O2143     1.0  0.34873  0.92503  0.00000  1.0000
  O   O2144     1.0  0.00000  0.65127  0.92503  1.0000
  O   O2145     1.0  0.07498  1.00000  0.65127  1.0000
  O   O2146     1.0  0.34873  1.00000  0.92503  1.0000
  O   O2147     1.0  0.07497  0.65128  1.00000  1.0000
  O   O2148     1.0  1.00000  0.92503  0.65127  1.0000
  O   O2149     1.0  0.65127  0.07497  1.00000  1.0000
  O   O2150     1.0  1.00000  0.34872  0.92502  1.0000
  O   O2151     1.0  0.92502  1.00000  0.65127  1.0000
  O   O2152     1.0  0.65127  0.00000  0.92502  1.0000
  O   O2153     1.0  0.92503  0.34872  0.00000  1.0000
  O   O2154     1.0  0.00000  0.07499  0.65128  1.0000
  O   O2155     1.0  0.65128  0.92502  0.00000  1.0000
  O   O2156     1.0  0.00000  0.65128  0.07498  1.0000
  O   O2157     1.0  0.92502  0.00000  0.34873  1.0000
  O   O2158     1.0  0.65127  0.00000  0.07497  1.0000
  O   O2159     1.0  0.92502  0.65128  1.00000  1.0000
  O   O2160     1.0  1.00000  0.92501  0.34872  1.0000
  O   O2161     1.0  0.73752  0.64726  0.50000  1.0000
  O   O2162     1.0  0.50000  0.73751  0.64725  1.0000
  O   O2163     1.0  0.64725  0.50000  0.73752  1.0000
  O   O2164     1.0  0.73753  0.50000  0.64725  1.0000
  O   O2165     1.0  0.64726  0.73752  0.50000  1.0000
  O   O2166     1.0  0.50000  0.64724  0.73751  1.0000
  O   O2167     1.0  0.73751  0.35275  0.50000  1.0000
  O   O2168     1.0  0.50000  0.26248  0.35275  1.0000
  O   O2169     1.0  0.64725  0.50000  0.26247  1.0000
  O   O2170     1.0  0.73752  0.50000  0.35275  1.0000
  O   O2171     1.0  0.64725  0.26248  0.50000  1.0000
  O   O2172     1.0  0.50000  0.35276  0.26249  1.0000
  O   O2173     1.0  0.26249  0.64725  0.50000  1.0000
  O   O2174     1.0  0.50000  0.73752  0.35274  1.0000
  O   O2175     1.0  0.35275  0.50000  0.26248  1.0000
  O   O2176     1.0  0.26247  0.50000  0.35275  1.0000
  O   O2177     1.0  0.35275  0.73752  0.50000  1.0000
  O   O2178     1.0  0.50000  0.64726  0.26248  1.0000
  O   O2179     1.0  0.26248  0.35274  0.50000  1.0000
  O   O2180     1.0  0.50000  0.26248  0.64726  1.0000
  O   O2181     1.0  0.35275  0.50000  0.73753  1.0000
  O   O2182     1.0  0.26248  0.50000  0.64725  1.0000
  O   O2183     1.0  0.35274  0.26248  0.50000  1.0000
  O   O2184     1.0  0.50000  0.35274  0.73752  1.0000
  O   O2185     1.0  0.23752  0.14726  0.00000  1.0000
  O   O2186     1.0  1.00000  0.23751  0.14725  1.0000
  O   O2187     1.0  0.14725  0.00000  0.23752  1.0000
  O   O2188     1.0  0.23753  1.00000  0.14725  1.0000
  O   O2189     1.0  0.14726  0.23751  0.00000  1.0000
  O   O2190     1.0  1.00000  0.14724  0.23751  1.0000
  O   O2191     1.0  0.23751  0.85275  1.00000  1.0000
  O   O2192     1.0  0.00000  0.76249  0.85275  1.0000
  O   O2193     1.0  0.14725  1.00000  0.76247  1.0000
  O   O2194     1.0  0.23752  1.00000  0.85275  1.0000
  O   O2195     1.0  0.14725  0.76248  1.00000  1.0000
  O   O2196     1.0  0.00000  0.85276  0.76249  1.0000
  O   O2197     1.0  0.76249  0.14725  0.00000  1.0000
  O   O2198     1.0  1.00000  0.23752  0.85274  1.0000
  O   O2199     1.0  0.85275  1.00000  0.76248  1.0000
  O   O2200     1.0  0.76247  1.00000  0.85274  1.0000
  O   O2201     1.0  0.85275  0.23751  0.00000  1.0000
  O   O2202     1.0  1.00000  0.14726  0.76248  1.0000
  O   O2203     1.0  0.76248  0.85274  1.00000  1.0000
  O   O2204     1.0  0.00000  0.76248  0.14726  1.0000
  O   O2205     1.0  0.85275  0.00000  0.23753  1.0000
  O   O2206     1.0  0.76248  0.00000  0.14725  1.0000
  O   O2207     1.0  0.85274  0.76248  1.00000  1.0000
  O   O2208     1.0  0.00000  0.85274  0.23752  1.0000
  O   O2209     1.0  0.70699  0.57504  0.50000  1.0000
  O   O2210     1.0  0.50000  0.70701  0.57506  1.0000
  O   O2211     1.0  0.57505  0.50000  0.70699  1.0000
  O   O2212     1.0  0.70699  0.50000  0.57505  1.0000
  O   O2213     1.0  0.57504  0.70700  0.50000  1.0000
  O   O2214     1.0  0.50000  0.57506  0.70700  1.0000
  O   O2215     1.0  0.70701  0.42494  0.50000  1.0000
  O   O2216     1.0  0.50000  0.29299  0.42494  1.0000
  O   O2217     1.0  0.57505  0.50000  0.29301  1.0000
  O   O2218     1.0  0.70699  0.50000  0.42495  1.0000
  O   O2219     1.0  0.57506  0.29299  0.50000  1.0000
  O   O2220     1.0  0.50000  0.42494  0.29300  1.0000
  O   O2221     1.0  0.29299  0.57506  0.50000  1.0000
  O   O2222     1.0  0.50000  0.70699  0.42496  1.0000
  O   O2223     1.0  0.42495  0.50000  0.29301  1.0000
  O   O2224     1.0  0.29301  0.50000  0.42495  1.0000
  O   O2225     1.0  0.42494  0.70701  0.50000  1.0000
  O   O2226     1.0  0.50000  0.57504  0.29301  1.0000
  O   O2227     1.0  0.29301  0.42496  0.50000  1.0000
  O   O2228     1.0  0.50000  0.29301  0.57504  1.0000
  O   O2229     1.0  0.42495  0.50000  0.70699  1.0000
  O   O2230     1.0  0.29301  0.50000  0.57505  1.0000
  O   O2231     1.0  0.42496  0.29300  0.50000  1.0000
  O   O2232     1.0  0.50000  0.42495  0.70699  1.0000
  O   O2233     1.0  0.20699  0.07504  1.00000  1.0000
  O   O2234     1.0  1.00000  0.20701  0.07506  1.0000
  O   O2235     1.0  0.07505  0.00000  0.20699  1.0000
  O   O2236     1.0  0.20699  1.00000  0.07505  1.0000
  O   O2237     1.0  0.07504  0.20700  0.00000  1.0000
  O   O2238     1.0  0.00000  0.07506  0.20700  1.0000
  O   O2239     1.0  0.20701  0.92494  0.00000  1.0000
  O   O2240     1.0  0.00000  0.79299  0.92494  1.0000
  O   O2241     1.0  0.07505  0.00000  0.79301  1.0000
  O   O2242     1.0  0.20699  0.00000  0.92495  1.0000
  O   O2243     1.0  0.07506  0.79299  1.00000  1.0000
  O   O2244     1.0  1.00000  0.92494  0.79300  1.0000
  O   O2245     1.0  0.79299  0.07506  1.00000  1.0000
  O   O2246     1.0  1.00000  0.20699  0.92496  1.0000
  O   O2247     1.0  0.92495  1.00000  0.79301  1.0000
  O   O2248     1.0  0.79301  0.00000  0.92495  1.0000
  O   O2249     1.0  0.92494  0.20701  0.00000  1.0000
  O   O2250     1.0  0.00000  0.07504  0.79301  1.0000
  O   O2251     1.0  0.79301  0.92496  0.00000  1.0000
  O   O2252     1.0  0.00000  0.79301  0.07504  1.0000
  O   O2253     1.0  0.92495  1.00000  0.20699  1.0000
  O   O2254     1.0  0.79301  1.00000  0.07505  1.0000
  O   O2255     1.0  0.92496  0.79300  1.00000  1.0000
  O   O2256     1.0  1.00000  0.92496  0.20699  1.0000
  O   O2257     1.0  0.62735  0.57399  0.50000  1.0000
  O   O2258     1.0  0.50000  0.62735  0.57398  1.0000
  O   O2259     1.0  0.57398  0.50000  0.62735  1.0000
  O   O2260     1.0  0.62735  0.50000  0.57398  1.0000
  O   O2261     1.0  0.57399  0.62734  0.50000  1.0000
  O   O2262     1.0  0.50000  0.57398  0.62736  1.0000
  O   O2263     1.0  0.62735  0.42601  0.50000  1.0000
  O   O2264     1.0  0.50000  0.37265  0.42602  1.0000
  O   O2265     1.0  0.57398  0.50000  0.37264  1.0000
  O   O2266     1.0  0.62735  0.50000  0.42602  1.0000
  O   O2267     1.0  0.57398  0.37265  0.50000  1.0000
  O   O2268     1.0  0.50000  0.42602  0.37264  1.0000
  O   O2269     1.0  0.37265  0.57399  0.50000  1.0000
  O   O2270     1.0  0.50000  0.62735  0.42601  1.0000
  O   O2271     1.0  0.42602  0.50000  0.37264  1.0000
  O   O2272     1.0  0.37265  0.50000  0.42602  1.0000
  O   O2273     1.0  0.42602  0.62735  0.50000  1.0000
  O   O2274     1.0  0.50000  0.57399  0.37265  1.0000
  O   O2275     1.0  0.37265  0.42601  0.50000  1.0000
  O   O2276     1.0  0.50000  0.37265  0.57399  1.0000
  O   O2277     1.0  0.42602  0.50000  0.62736  1.0000
  O   O2278     1.0  0.37265  0.50000  0.57398  1.0000
  O   O2279     1.0  0.42601  0.37266  0.50000  1.0000
  O   O2280     1.0  0.50000  0.42601  0.62735  1.0000
  O   O2281     1.0  0.12735  0.07399  1.00000  1.0000
  O   O2282     1.0  1.00000  0.12735  0.07398  1.0000
  O   O2283     1.0  0.07398  0.00000  0.12736  1.0000
  O   O2284     1.0  0.12735  1.00000  0.07398  1.0000
  O   O2285     1.0  0.07399  0.12734  0.00000  1.0000
  O   O2286     1.0  0.00000  0.07398  0.12736  1.0000
  O   O2287     1.0  0.12735  0.92601  0.00000  1.0000
  O   O2288     1.0  0.00000  0.87265  0.92602  1.0000
  O   O2289     1.0  0.07398  1.00000  0.87264  1.0000
  O   O2290     1.0  0.12735  1.00000  0.92602  1.0000
  O   O2291     1.0  0.07398  0.87265  1.00000  1.0000
  O   O2292     1.0  1.00000  0.92602  0.87265  1.0000
  O   O2293     1.0  0.87265  0.07399  1.00000  1.0000
  O   O2294     1.0  1.00000  0.12735  0.92601  1.0000
  O   O2295     1.0  0.92602  1.00000  0.87264  1.0000
  O   O2296     1.0  0.87265  0.00000  0.92602  1.0000
  O   O2297     1.0  0.92602  0.12735  0.00000  1.0000
  O   O2298     1.0  0.00000  0.07399  0.87265  1.0000
  O   O2299     1.0  0.87265  0.92601  0.00000  1.0000
  O   O2300     1.0  0.00000  0.87266  0.07399  1.0000
  O   O2301     1.0  0.92602  0.00000  0.12736  1.0000
  O   O2302     1.0  0.87265  0.00000  0.07398  1.0000
  O   O2303     1.0  0.92601  0.87266  1.00000  1.0000
  O   O2304     1.0  1.00000  0.92601  0.12735  1.0000
  O   O2305     1.0  0.84980  0.50000  0.20370  1.0000
  O   O2306     1.0  0.20371  0.84980  0.50000  1.0000
  O   O2307     1.0  0.50000  0.20370  0.84979  1.0000
  O   O2308     1.0  0.84980  0.20371  0.50000  1.0000
  O   O2309     1.0  0.50000  0.84979  0.20369  1.0000
  O   O2310     1.0  0.20370  0.50000  0.84980  1.0000
  O   O2311     1.0  0.84980  0.50000  0.79630  1.0000
  O   O2312     1.0  0.20368  0.15021  0.50000  1.0000
  O   O2313     1.0  0.50000  0.79630  0.15021  1.0000
  O   O2314     1.0  0.84979  0.79632  0.50000  1.0000
  O   O2315     1.0  0.50000  0.15021  0.79631  1.0000
  O   O2316     1.0  0.20370  0.50000  0.15020  1.0000
  O   O2317     1.0  0.15020  0.50000  0.79630  1.0000
  O   O2318     1.0  0.79632  0.84979  0.50000  1.0000
  O   O2319     1.0  0.50000  0.20371  0.15020  1.0000
  O   O2320     1.0  0.15021  0.20368  0.50000  1.0000
  O   O2321     1.0  0.50000  0.84980  0.79629  1.0000
  O   O2322     1.0  0.79630  0.50000  0.15020  1.0000
  O   O2323     1.0  0.15020  0.50000  0.20370  1.0000
  O   O2324     1.0  0.79629  0.15020  0.50000  1.0000
  O   O2325     1.0  0.50000  0.79629  0.84980  1.0000
  O   O2326     1.0  0.15020  0.79629  0.50000  1.0000
  O   O2327     1.0  0.50000  0.15020  0.20371  1.0000
  O   O2328     1.0  0.79630  0.50000  0.84980  1.0000
  O   O2329     1.0  0.34980  1.00000  0.70370  1.0000
  O   O2330     1.0  0.70371  0.34980  0.00000  1.0000
  O   O2331     1.0  0.00000  0.70370  0.34979  1.0000
  O   O2332     1.0  0.34980  0.70371  1.00000  1.0000
  O   O2333     1.0  1.00000  0.34979  0.70369  1.0000
  O   O2334     1.0  0.70370  0.00000  0.34980  1.0000
  O   O2335     1.0  0.34980  0.00000  0.29630  1.0000
  O   O2336     1.0  0.70368  0.65021  0.00000  1.0000
  O   O2337     1.0  1.00000  0.29630  0.65021  1.0000
  O   O2338     1.0  0.34979  0.29632  1.00000  1.0000
  O   O2339     1.0  0.00000  0.65021  0.29631  1.0000
  O   O2340     1.0  0.70370  0.00000  0.65020  1.0000
  O   O2341     1.0  0.65020  0.00000  0.29630  1.0000
  O   O2342     1.0  0.29632  0.34979  1.00000  1.0000
  O   O2343     1.0  0.00000  0.70371  0.65020  1.0000
  O   O2344     1.0  0.65021  0.70368  0.00000  1.0000
  O   O2345     1.0  0.00000  0.34980  0.29629  1.0000
  O   O2346     1.0  0.29630  1.00000  0.65020  1.0000
  O   O2347     1.0  0.65020  1.00000  0.70370  1.0000
  O   O2348     1.0  0.29629  0.65020  0.00000  1.0000
  O   O2349     1.0  1.00000  0.29629  0.34980  1.0000
  O   O2350     1.0  0.65020  0.29629  0.00000  1.0000
  O   O2351     1.0  1.00000  0.65020  0.70371  1.0000
  O   O2352     1.0  0.29630  1.00000  0.34980  1.0000
  O   O2353     1.0  0.56898  0.05462  0.05462  1.0000
  O   O2354     1.0  0.05462  0.56897  0.05462  1.0000
  O   O2355     1.0  0.05462  0.05462  0.56895  1.0000
  O   O2356     1.0  0.56898  0.94538  0.94538  1.0000
  O   O2357     1.0  0.05462  0.43103  0.94538  1.0000
  O   O2358     1.0  0.05461  0.94539  0.43102  1.0000
  O   O2359     1.0  0.43104  0.05462  0.94538  1.0000
  O   O2360     1.0  0.94538  0.56897  0.94538  1.0000
  O   O2361     1.0  0.94539  0.05461  0.43102  1.0000
  O   O2362     1.0  0.43104  0.94539  0.05461  1.0000
  O   O2363     1.0  0.94539  0.43103  0.05461  1.0000
  O   O2364     1.0  0.94538  0.94538  0.56895  1.0000
  O   O2365     1.0  0.43102  0.94538  0.94539  1.0000
  O   O2366     1.0  0.94538  0.43103  0.94538  1.0000
  O   O2367     1.0  0.94538  0.94538  0.43105  1.0000
  O   O2368     1.0  0.43102  0.05462  0.05462  1.0000
  O   O2369     1.0  0.94538  0.56897  0.05462  1.0000
  O   O2370     1.0  0.94539  0.05461  0.56898  1.0000
  O   O2371     1.0  0.56896  0.94538  0.05462  1.0000
  O   O2372     1.0  0.05462  0.43103  0.05462  1.0000
  O   O2373     1.0  0.05461  0.94539  0.56898  1.0000
  O   O2374     1.0  0.56896  0.05461  0.94539  1.0000
  O   O2375     1.0  0.05461  0.56897  0.94539  1.0000
  O   O2376     1.0  0.05462  0.05462  0.43105  1.0000
  O   O2377     1.0  0.06898  0.55462  0.55462  1.0000
  O   O2378     1.0  0.55462  0.06897  0.55462  1.0000
  O   O2379     1.0  0.55462  0.55462  0.06895  1.0000
  O   O2380     1.0  0.06898  0.44538  0.44538  1.0000
  O   O2381     1.0  0.55462  0.93103  0.44538  1.0000
  O   O2382     1.0  0.55462  0.44539  0.93102  1.0000
  O   O2383     1.0  0.93104  0.55462  0.44538  1.0000
  O   O2384     1.0  0.44538  0.06897  0.44538  1.0000
  O   O2385     1.0  0.44539  0.55461  0.93102  1.0000
  O   O2386     1.0  0.93104  0.44539  0.55461  1.0000
  O   O2387     1.0  0.44539  0.93103  0.55461  1.0000
  O   O2388     1.0  0.44538  0.44538  0.06895  1.0000
  O   O2389     1.0  0.93102  0.44538  0.44538  1.0000
  O   O2390     1.0  0.44538  0.93103  0.44538  1.0000
  O   O2391     1.0  0.44538  0.44538  0.93105  1.0000
  O   O2392     1.0  0.93102  0.55462  0.55462  1.0000
  O   O2393     1.0  0.44538  0.06897  0.55462  1.0000
  O   O2394     1.0  0.44539  0.55461  0.06898  1.0000
  O   O2395     1.0  0.06896  0.44538  0.55462  1.0000
  O   O2396     1.0  0.55462  0.93103  0.55462  1.0000
  O   O2397     1.0  0.55461  0.44539  0.06898  1.0000
  O   O2398     1.0  0.06896  0.55461  0.44539  1.0000
  O   O2399     1.0  0.55461  0.06897  0.44539  1.0000
  O   O2400     1.0  0.55462  0.55462  0.93105  1.0000
  O   O2401     1.0  0.84615  0.55475  0.55475  1.0000
  O   O2402     1.0  0.55476  0.84614  0.55476  1.0000
  O   O2403     1.0  0.55476  0.55476  0.84613  1.0000
  O   O2404     1.0  0.84615  0.44524  0.44524  1.0000
  O   O2405     1.0  0.55476  0.15385  0.44524  1.0000
  O   O2406     1.0  0.55476  0.44524  0.15385  1.0000
  O   O2407     1.0  0.15386  0.55476  0.44524  1.0000
  O   O2408     1.0  0.44524  0.84614  0.44524  1.0000
  O   O2409     1.0  0.44525  0.55475  0.15384  1.0000
  O   O2410     1.0  0.15386  0.44525  0.55475  1.0000
  O   O2411     1.0  0.44525  0.15385  0.55475  1.0000
  O   O2412     1.0  0.44525  0.44525  0.84613  1.0000
  O   O2413     1.0  0.15385  0.44525  0.44525  1.0000
  O   O2414     1.0  0.44524  0.15386  0.44524  1.0000
  O   O2415     1.0  0.44524  0.44524  0.15387  1.0000
  O   O2416     1.0  0.15385  0.55476  0.55476  1.0000
  O   O2417     1.0  0.44524  0.84615  0.55476  1.0000
  O   O2418     1.0  0.44524  0.55476  0.84615  1.0000
  O   O2419     1.0  0.84614  0.44524  0.55476  1.0000
  O   O2420     1.0  0.55476  0.15386  0.55476  1.0000
  O   O2421     1.0  0.55475  0.44525  0.84616  1.0000
  O   O2422     1.0  0.84614  0.55475  0.44525  1.0000
  O   O2423     1.0  0.55475  0.84615  0.44525  1.0000
  O   O2424     1.0  0.55475  0.55475  0.15387  1.0000
  O   O2425     1.0  0.34615  0.05475  0.05475  1.0000
  O   O2426     1.0  0.05476  0.34614  0.05476  1.0000
  O   O2427     1.0  0.05476  0.05476  0.34613  1.0000
  O   O2428     1.0  0.34615  0.94524  0.94524  1.0000
  O   O2429     1.0  0.05476  0.65385  0.94524  1.0000
  O   O2430     1.0  0.05476  0.94524  0.65385  1.0000
  O   O2431     1.0  0.65386  0.05476  0.94524  1.0000
  O   O2432     1.0  0.94524  0.34615  0.94524  1.0000
  O   O2433     1.0  0.94525  0.05475  0.65384  1.0000
  O   O2434     1.0  0.65386  0.94525  0.05475  1.0000
  O   O2435     1.0  0.94525  0.65385  0.05475  1.0000
  O   O2436     1.0  0.94525  0.94525  0.34613  1.0000
  O   O2437     1.0  0.65385  0.94525  0.94525  1.0000
  O   O2438     1.0  0.94524  0.65386  0.94524  1.0000
  O   O2439     1.0  0.94524  0.94524  0.65387  1.0000
  O   O2440     1.0  0.65385  0.05476  0.05476  1.0000
  O   O2441     1.0  0.94524  0.34615  0.05476  1.0000
  O   O2442     1.0  0.94524  0.05476  0.34615  1.0000
  O   O2443     1.0  0.34614  0.94524  0.05476  1.0000
  O   O2444     1.0  0.05476  0.65386  0.05476  1.0000
  O   O2445     1.0  0.05475  0.94525  0.34616  1.0000
  O   O2446     1.0  0.34614  0.05475  0.94525  1.0000
  O   O2447     1.0  0.05475  0.34615  0.94525  1.0000
  O   O2448     1.0  0.05475  0.05475  0.65387  1.0000
  O   O2449     1.0  0.70965  0.55487  0.55487  1.0000
  O   O2450     1.0  0.55487  0.70966  0.55487  1.0000
  O   O2451     1.0  0.55487  0.55487  0.70967  1.0000
  O   O2452     1.0  0.70965  0.44513  0.44513  1.0000
  O   O2453     1.0  0.55487  0.29035  0.44513  1.0000
  O   O2454     1.0  0.55486  0.44513  0.29035  1.0000
  O   O2455     1.0  0.29034  0.55487  0.44513  1.0000
  O   O2456     1.0  0.44513  0.70965  0.44513  1.0000
  O   O2457     1.0  0.44513  0.55486  0.29035  1.0000
  O   O2458     1.0  0.29034  0.44513  0.55487  1.0000
  O   O2459     1.0  0.44513  0.29035  0.55487  1.0000
  O   O2460     1.0  0.44513  0.44513  0.70966  1.0000
  O   O2461     1.0  0.29035  0.44513  0.44513  1.0000
  O   O2462     1.0  0.44513  0.29034  0.44513  1.0000
  O   O2463     1.0  0.44513  0.44513  0.29033  1.0000
  O   O2464     1.0  0.29035  0.55487  0.55487  1.0000
  O   O2465     1.0  0.44513  0.70965  0.55487  1.0000
  O   O2466     1.0  0.44513  0.55487  0.70965  1.0000
  O   O2467     1.0  0.70966  0.44513  0.55487  1.0000
  O   O2468     1.0  0.55487  0.29035  0.55487  1.0000
  O   O2469     1.0  0.55487  0.44514  0.70965  1.0000
  O   O2470     1.0  0.70966  0.55487  0.44513  1.0000
  O   O2471     1.0  0.55487  0.70965  0.44513  1.0000
  O   O2472     1.0  0.55487  0.55487  0.29034  1.0000
  O   O2473     1.0  0.20965  0.05487  0.05487  1.0000
  O   O2474     1.0  0.05487  0.20966  0.05487  1.0000
  O   O2475     1.0  0.05487  0.05487  0.20967  1.0000
  O   O2476     1.0  0.20965  0.94513  0.94513  1.0000
  O   O2477     1.0  0.05487  0.79035  0.94513  1.0000
  O   O2478     1.0  0.05486  0.94514  0.79035  1.0000
  O   O2479     1.0  0.79034  0.05487  0.94513  1.0000
  O   O2480     1.0  0.94513  0.20965  0.94513  1.0000
  O   O2481     1.0  0.94513  0.05486  0.79035  1.0000
  O   O2482     1.0  0.79034  0.94513  0.05487  1.0000
  O   O2483     1.0  0.94513  0.79035  0.05487  1.0000
  O   O2484     1.0  0.94513  0.94513  0.20966  1.0000
  O   O2485     1.0  0.79035  0.94513  0.94513  1.0000
  O   O2486     1.0  0.94513  0.79034  0.94513  1.0000
  O   O2487     1.0  0.94513  0.94513  0.79033  1.0000
  O   O2488     1.0  0.79035  0.05487  0.05487  1.0000
  O   O2489     1.0  0.94513  0.20965  0.05487  1.0000
  O   O2490     1.0  0.94513  0.05487  0.20965  1.0000
  O   O2491     1.0  0.20966  0.94513  0.05487  1.0000
  O   O2492     1.0  0.05487  0.79035  0.05487  1.0000
  O   O2493     1.0  0.05487  0.94514  0.20965  1.0000
  O   O2494     1.0  0.20966  0.05487  0.94513  1.0000
  O   O2495     1.0  0.05487  0.20965  0.94513  1.0000
  O   O2496     1.0  0.05487  0.05487  0.79034  1.0000
  O   O2497     1.0  0.33451  0.33451  0.04251  1.0000
  O   O2498     1.0  0.04248  0.33451  0.33451  1.0000
  O   O2499     1.0  0.33450  0.04250  0.33451  1.0000
  O   O2500     1.0  0.33451  0.66549  0.95751  1.0000
  O   O2501     1.0  0.04249  0.66550  0.66550  1.0000
  O   O2502     1.0  0.33450  0.95751  0.66550  1.0000
  O   O2503     1.0  0.66549  0.33451  0.95752  1.0000
  O   O2504     1.0  0.95750  0.33450  0.66550  1.0000
  O   O2505     1.0  0.66550  0.04250  0.66550  1.0000
  O   O2506     1.0  0.66549  0.66549  0.04251  1.0000
  O   O2507     1.0  0.95750  0.66549  0.33451  1.0000
  O   O2508     1.0  0.66549  0.95751  0.33451  1.0000
  O   O2509     1.0  0.66549  0.66549  0.95749  1.0000
  O   O2510     1.0  0.95752  0.66549  0.66549  1.0000
  O   O2511     1.0  0.66550  0.95750  0.66550  1.0000
  O   O2512     1.0  0.66549  0.33451  0.04249  1.0000
  O   O2513     1.0  0.95751  0.33450  0.33450  1.0000
  O   O2514     1.0  0.66550  0.04249  0.33450  1.0000
  O   O2515     1.0  0.33451  0.66549  0.04248  1.0000
  O   O2516     1.0  0.04250  0.66550  0.33450  1.0000
  O   O2517     1.0  0.33450  0.95750  0.33450  1.0000
  O   O2518     1.0  0.33451  0.33451  0.95749  1.0000
  O   O2519     1.0  0.04250  0.33451  0.66549  1.0000
  O   O2520     1.0  0.33451  0.04249  0.66549  1.0000
  O   O2521     1.0  0.83450  0.83451  0.54251  1.0000
  O   O2522     1.0  0.54248  0.83451  0.83451  1.0000
  O   O2523     1.0  0.83450  0.54250  0.83451  1.0000
  O   O2524     1.0  0.83451  0.16549  0.45751  1.0000
  O   O2525     1.0  0.54249  0.16550  0.16550  1.0000
  O   O2526     1.0  0.83450  0.45751  0.16550  1.0000
  O   O2527     1.0  0.16549  0.83451  0.45752  1.0000
  O   O2528     1.0  0.45750  0.83450  0.16550  1.0000
  O   O2529     1.0  0.16550  0.54250  0.16550  1.0000
  O   O2530     1.0  0.16549  0.16549  0.54251  1.0000
  O   O2531     1.0  0.45750  0.16549  0.83451  1.0000
  O   O2532     1.0  0.16549  0.45751  0.83451  1.0000
  O   O2533     1.0  0.16550  0.16549  0.45749  1.0000
  O   O2534     1.0  0.45752  0.16549  0.16549  1.0000
  O   O2535     1.0  0.16550  0.45750  0.16550  1.0000
  O   O2536     1.0  0.16549  0.83451  0.54249  1.0000
  O   O2537     1.0  0.45751  0.83450  0.83450  1.0000
  O   O2538     1.0  0.16550  0.54249  0.83450  1.0000
  O   O2539     1.0  0.83451  0.16549  0.54248  1.0000
  O   O2540     1.0  0.54250  0.16550  0.83450  1.0000
  O   O2541     1.0  0.83450  0.45750  0.83450  1.0000
  O   O2542     1.0  0.83451  0.83451  0.45749  1.0000
  O   O2543     1.0  0.54250  0.83451  0.16549  1.0000
  O   O2544     1.0  0.83451  0.54249  0.16549  1.0000
  O   O2545     1.0  0.66582  0.66582  0.82067  1.0000
  O   O2546     1.0  0.82065  0.66582  0.66582  1.0000
  O   O2547     1.0  0.66582  0.82066  0.66583  1.0000
  O   O2548     1.0  0.66582  0.33418  0.17934  1.0000
  O   O2549     1.0  0.82065  0.33418  0.33418  1.0000
  O   O2550     1.0  0.66582  0.17934  0.33418  1.0000
  O   O2551     1.0  0.33418  0.66581  0.17935  1.0000
  O   O2552     1.0  0.17934  0.66582  0.33418  1.0000
  O   O2553     1.0  0.33417  0.82066  0.33418  1.0000
  O   O2554     1.0  0.33418  0.33418  0.82066  1.0000
  O   O2555     1.0  0.17934  0.33418  0.66582  1.0000
  O   O2556     1.0  0.33417  0.17934  0.66583  1.0000
  O   O2557     1.0  0.33418  0.33418  0.17933  1.0000
  O   O2558     1.0  0.17935  0.33418  0.33418  1.0000
  O   O2559     1.0  0.33418  0.17934  0.33417  1.0000
  O   O2560     1.0  0.33418  0.66582  0.82065  1.0000
  O   O2561     1.0  0.17935  0.66582  0.66582  1.0000
  O   O2562     1.0  0.33417  0.82066  0.66582  1.0000
  O   O2563     1.0  0.66582  0.33418  0.82065  1.0000
  O   O2564     1.0  0.82066  0.33417  0.66582  1.0000
  O   O2565     1.0  0.66583  0.17934  0.66582  1.0000
  O   O2566     1.0  0.66582  0.66582  0.17934  1.0000
  O   O2567     1.0  0.82066  0.66582  0.33418  1.0000
  O   O2568     1.0  0.66583  0.82066  0.33417  1.0000
  O   O2569     1.0  0.16582  0.16582  0.32067  1.0000
  O   O2570     1.0  0.32065  0.16582  0.16582  1.0000
  O   O2571     1.0  0.16582  0.32066  0.16583  1.0000
  O   O2572     1.0  0.16582  0.83418  0.67935  1.0000
  O   O2573     1.0  0.32065  0.83418  0.83418  1.0000
  O   O2574     1.0  0.16583  0.67934  0.83417  1.0000
  O   O2575     1.0  0.83418  0.16581  0.67935  1.0000
  O   O2576     1.0  0.67934  0.16582  0.83418  1.0000
  O   O2577     1.0  0.83417  0.32066  0.83417  1.0000
  O   O2578     1.0  0.83418  0.83418  0.32066  1.0000
  O   O2579     1.0  0.67934  0.83418  0.16582  1.0000
  O   O2580     1.0  0.83417  0.67934  0.16583  1.0000
  O   O2581     1.0  0.83418  0.83418  0.67933  1.0000
  O   O2582     1.0  0.67934  0.83418  0.83418  1.0000
  O   O2583     1.0  0.83418  0.67934  0.83417  1.0000
  O   O2584     1.0  0.83418  0.16582  0.32066  1.0000
  O   O2585     1.0  0.67935  0.16582  0.16582  1.0000
  O   O2586     1.0  0.83418  0.32066  0.16582  1.0000
  O   O2587     1.0  0.16582  0.83418  0.32065  1.0000
  O   O2588     1.0  0.32066  0.83417  0.16582  1.0000
  O   O2589     1.0  0.16583  0.67934  0.16582  1.0000
  O   O2590     1.0  0.16582  0.16582  0.67934  1.0000
  O   O2591     1.0  0.32066  0.16582  0.83418  1.0000
  O   O2592     1.0  0.16583  0.32066  0.83417  1.0000
  O   O2593     1.0  0.72319  0.72319  0.56854  1.0000
  O   O2594     1.0  0.56855  0.72318  0.72318  1.0000
  O   O2595     1.0  0.72318  0.56855  0.72318  1.0000
  O   O2596     1.0  0.72319  0.27681  0.43145  1.0000
  O   O2597     1.0  0.56856  0.27681  0.27681  1.0000
  O   O2598     1.0  0.72318  0.43145  0.27682  1.0000
  O   O2599     1.0  0.27681  0.72319  0.43145  1.0000
  O   O2600     1.0  0.43146  0.72318  0.27682  1.0000
  O   O2601     1.0  0.27682  0.56855  0.27682  1.0000
  O   O2602     1.0  0.27682  0.27682  0.56854  1.0000
  O   O2603     1.0  0.43146  0.27682  0.72318  1.0000
  O   O2604     1.0  0.27682  0.43145  0.72318  1.0000
  O   O2605     1.0  0.27681  0.27681  0.43146  1.0000
  O   O2606     1.0  0.43145  0.27682  0.27682  1.0000
  O   O2607     1.0  0.27682  0.43145  0.27682  1.0000
  O   O2608     1.0  0.27681  0.72319  0.56855  1.0000
  O   O2609     1.0  0.43144  0.72319  0.72319  1.0000
  O   O2610     1.0  0.27682  0.56855  0.72318  1.0000
  O   O2611     1.0  0.72319  0.27681  0.56855  1.0000
  O   O2612     1.0  0.56854  0.27682  0.72318  1.0000
  O   O2613     1.0  0.72318  0.43145  0.72318  1.0000
  O   O2614     1.0  0.72318  0.72318  0.43146  1.0000
  O   O2615     1.0  0.56854  0.72318  0.27682  1.0000
  O   O2616     1.0  0.72318  0.56855  0.27682  1.0000
  O   O2617     1.0  0.22319  0.22319  0.06854  1.0000
  O   O2618     1.0  0.06855  0.22318  0.22318  1.0000
  O   O2619     1.0  0.22318  0.06855  0.22318  1.0000
  O   O2620     1.0  0.22319  0.77681  0.93145  1.0000
  O   O2621     1.0  0.06856  0.77681  0.77681  1.0000
  O   O2622     1.0  0.22318  0.93145  0.77682  1.0000
  O   O2623     1.0  0.77681  0.22319  0.93145  1.0000
  O   O2624     1.0  0.93145  0.22318  0.77682  1.0000
  O   O2625     1.0  0.77682  0.06855  0.77682  1.0000
  O   O2626     1.0  0.77682  0.77682  0.06854  1.0000
  O   O2627     1.0  0.93146  0.77682  0.22318  1.0000
  O   O2628     1.0  0.77682  0.93145  0.22318  1.0000
  O   O2629     1.0  0.77681  0.77682  0.93146  1.0000
  O   O2630     1.0  0.93145  0.77682  0.77682  1.0000
  O   O2631     1.0  0.77682  0.93145  0.77682  1.0000
  O   O2632     1.0  0.77681  0.22319  0.06855  1.0000
  O   O2633     1.0  0.93144  0.22319  0.22319  1.0000
  O   O2634     1.0  0.77682  0.06855  0.22318  1.0000
  O   O2635     1.0  0.22319  0.77681  0.06855  1.0000
  O   O2636     1.0  0.06854  0.77682  0.22318  1.0000
  O   O2637     1.0  0.22318  0.93145  0.22318  1.0000
  O   O2638     1.0  0.22318  0.22318  0.93146  1.0000
  O   O2639     1.0  0.06854  0.22318  0.77682  1.0000
  O   O2640     1.0  0.22318  0.06855  0.77682  1.0000
  O   O2641     1.0  0.61153  0.61153  0.54285  1.0000
  O   O2642     1.0  0.54284  0.61154  0.61153  1.0000
  O   O2643     1.0  0.61153  0.54284  0.61153  1.0000
  O   O2644     1.0  0.61154  0.38846  0.45716  1.0000
  O   O2645     1.0  0.54284  0.38847  0.38847  1.0000
  O   O2646     1.0  0.61153  0.45716  0.38847  1.0000
  O   O2647     1.0  0.38846  0.61154  0.45716  1.0000
  O   O2648     1.0  0.45715  0.61153  0.38847  1.0000
  O   O2649     1.0  0.38847  0.54284  0.38847  1.0000
  O   O2650     1.0  0.38847  0.38847  0.54285  1.0000
  O   O2651     1.0  0.45715  0.38847  0.61153  1.0000
  O   O2652     1.0  0.38847  0.45716  0.61153  1.0000
  O   O2653     1.0  0.38847  0.38847  0.45715  1.0000
  O   O2654     1.0  0.45716  0.38846  0.38846  1.0000
  O   O2655     1.0  0.38847  0.45716  0.38847  1.0000
  O   O2656     1.0  0.38846  0.61154  0.54284  1.0000
  O   O2657     1.0  0.45716  0.61153  0.61153  1.0000
  O   O2658     1.0  0.38847  0.54284  0.61153  1.0000
  O   O2659     1.0  0.61153  0.38846  0.54284  1.0000
  O   O2660     1.0  0.54285  0.38847  0.61153  1.0000
  O   O2661     1.0  0.61153  0.45716  0.61153  1.0000
  O   O2662     1.0  0.61153  0.61153  0.45715  1.0000
  O   O2663     1.0  0.54284  0.61153  0.38847  1.0000
  O   O2664     1.0  0.61153  0.54284  0.38847  1.0000
  O   O2665     1.0  0.11153  0.11153  0.04285  1.0000
  O   O2666     1.0  0.04284  0.11154  0.11153  1.0000
  O   O2667     1.0  0.11153  0.04284  0.11153  1.0000
  O   O2668     1.0  0.11154  0.88846  0.95716  1.0000
  O   O2669     1.0  0.04284  0.88847  0.88847  1.0000
  O   O2670     1.0  0.11153  0.95716  0.88847  1.0000
  O   O2671     1.0  0.88846  0.11154  0.95716  1.0000
  O   O2672     1.0  0.95715  0.11153  0.88847  1.0000
  O   O2673     1.0  0.88847  0.04284  0.88847  1.0000
  O   O2674     1.0  0.88847  0.88847  0.04285  1.0000
  O   O2675     1.0  0.95715  0.88847  0.11153  1.0000
  O   O2676     1.0  0.88847  0.95716  0.11153  1.0000
  O   O2677     1.0  0.88847  0.88847  0.95715  1.0000
  O   O2678     1.0  0.95716  0.88846  0.88847  1.0000
  O   O2679     1.0  0.88847  0.95716  0.88847  1.0000
  O   O2680     1.0  0.88846  0.11154  0.04284  1.0000
  O   O2681     1.0  0.95716  0.11153  0.11153  1.0000
  O   O2682     1.0  0.88847  0.04284  0.11153  1.0000
  O   O2683     1.0  0.11153  0.88846  0.04284  1.0000
  O   O2684     1.0  0.04285  0.88847  0.11153  1.0000
  O   O2685     1.0  0.11153  0.95716  0.11153  1.0000
  O   O2686     1.0  0.11153  0.11153  0.95715  1.0000
  O   O2687     1.0  0.04285  0.11153  0.88847  1.0000
  O   O2688     1.0  0.11153  0.04284  0.88847  1.0000
  O   O2689     1.0  0.72258  0.65377  0.72258  1.0000
  O   O2690     1.0  0.72258  0.72258  0.65378  1.0000
  O   O2691     1.0  0.65376  0.72258  0.72258  1.0000
  O   O2692     1.0  0.72258  0.34623  0.27742  1.0000
  O   O2693     1.0  0.72258  0.27742  0.34623  1.0000
  O   O2694     1.0  0.65376  0.27742  0.27742  1.0000
  O   O2695     1.0  0.27742  0.65377  0.27742  1.0000
  O   O2696     1.0  0.27742  0.72258  0.34623  1.0000
  O   O2697     1.0  0.34622  0.72258  0.27742  1.0000
  O   O2698     1.0  0.27742  0.34623  0.72258  1.0000
  O   O2699     1.0  0.27742  0.27742  0.65378  1.0000
  O   O2700     1.0  0.34622  0.27742  0.72258  1.0000
  O   O2701     1.0  0.27742  0.34623  0.27742  1.0000
  O   O2702     1.0  0.27742  0.27742  0.34622  1.0000
  O   O2703     1.0  0.34624  0.27742  0.27742  1.0000
  O   O2704     1.0  0.27742  0.65377  0.72258  1.0000
  O   O2705     1.0  0.27742  0.72258  0.65377  1.0000
  O   O2706     1.0  0.34624  0.72258  0.72258  1.0000
  O   O2707     1.0  0.72258  0.34623  0.72258  1.0000
  O   O2708     1.0  0.72258  0.27742  0.65377  1.0000
  O   O2709     1.0  0.65378  0.27742  0.72258  1.0000
  O   O2710     1.0  0.72258  0.65377  0.27742  1.0000
  O   O2711     1.0  0.72258  0.72258  0.34622  1.0000
  O   O2712     1.0  0.65378  0.72258  0.27742  1.0000
  O   O2713     1.0  0.22258  0.15377  0.22258  1.0000
  O   O2714     1.0  0.22258  0.22258  0.15378  1.0000
  O   O2715     1.0  0.15376  0.22258  0.22258  1.0000
  O   O2716     1.0  0.22258  0.84623  0.77742  1.0000
  O   O2717     1.0  0.22258  0.77742  0.84623  1.0000
  O   O2718     1.0  0.15376  0.77742  0.77742  1.0000
  O   O2719     1.0  0.77742  0.15377  0.77742  1.0000
  O   O2720     1.0  0.77742  0.22258  0.84623  1.0000
  O   O2721     1.0  0.84622  0.22258  0.77742  1.0000
  O   O2722     1.0  0.77742  0.84623  0.22258  1.0000
  O   O2723     1.0  0.77742  0.77742  0.15378  1.0000
  O   O2724     1.0  0.84622  0.77742  0.22258  1.0000
  O   O2725     1.0  0.77742  0.84623  0.77742  1.0000
  O   O2726     1.0  0.77742  0.77742  0.84622  1.0000
  O   O2727     1.0  0.84624  0.77742  0.77742  1.0000
  O   O2728     1.0  0.77742  0.15377  0.22258  1.0000
  O   O2729     1.0  0.77742  0.22258  0.15377  1.0000
  O   O2730     1.0  0.84624  0.22258  0.22258  1.0000
  O   O2731     1.0  0.22258  0.84623  0.22258  1.0000
  O   O2732     1.0  0.22258  0.77742  0.15377  1.0000
  O   O2733     1.0  0.15378  0.77742  0.22258  1.0000
  O   O2734     1.0  0.22258  0.15377  0.77742  1.0000
  O   O2735     1.0  0.22258  0.22258  0.84622  1.0000
  O   O2736     1.0  0.15378  0.22258  0.77742  1.0000
  O   O2737     1.0  0.62377  0.55542  0.55542  1.0000
  O   O2738     1.0  0.55542  0.62377  0.55543  1.0000
  O   O2739     1.0  0.55542  0.55543  0.62376  1.0000
  O   O2740     1.0  0.62378  0.44457  0.44458  1.0000
  O   O2741     1.0  0.55543  0.37623  0.44457  1.0000
  O   O2742     1.0  0.55542  0.44457  0.37623  1.0000
  O   O2743     1.0  0.37624  0.55543  0.44458  1.0000
  O   O2744     1.0  0.44457  0.62377  0.44458  1.0000
  O   O2745     1.0  0.44458  0.55542  0.37623  1.0000
  O   O2746     1.0  0.37624  0.44458  0.55542  1.0000
  O   O2747     1.0  0.44458  0.37623  0.55542  1.0000
  O   O2748     1.0  0.44458  0.44458  0.62376  1.0000
  O   O2749     1.0  0.37623  0.44458  0.44458  1.0000
  O   O2750     1.0  0.44458  0.37623  0.44457  1.0000
  O   O2751     1.0  0.44457  0.44457  0.37624  1.0000
  O   O2752     1.0  0.37622  0.55543  0.55542  1.0000
  O   O2753     1.0  0.44457  0.62377  0.55543  1.0000
  O   O2754     1.0  0.44458  0.55543  0.62377  1.0000
  O   O2755     1.0  0.62376  0.44457  0.55542  1.0000
  O   O2756     1.0  0.55543  0.37623  0.55542  1.0000
  O   O2757     1.0  0.55542  0.44458  0.62377  1.0000
  O   O2758     1.0  0.62376  0.55542  0.44458  1.0000
  O   O2759     1.0  0.55542  0.62377  0.44458  1.0000
  O   O2760     1.0  0.55542  0.55542  0.37624  1.0000
  O   O2761     1.0  0.12377  0.05542  0.05542  1.0000
  O   O2762     1.0  0.05542  0.12377  0.05543  1.0000
  O   O2763     1.0  0.05542  0.05543  0.12376  1.0000
  O   O2764     1.0  0.12378  0.94457  0.94458  1.0000
  O   O2765     1.0  0.05543  0.87623  0.94457  1.0000
  O   O2766     1.0  0.05542  0.94457  0.87623  1.0000
  O   O2767     1.0  0.87624  0.05543  0.94458  1.0000
  O   O2768     1.0  0.94457  0.12377  0.94458  1.0000
  O   O2769     1.0  0.94458  0.05542  0.87623  1.0000
  O   O2770     1.0  0.87624  0.94458  0.05542  1.0000
  O   O2771     1.0  0.94458  0.87623  0.05542  1.0000
  O   O2772     1.0  0.94458  0.94458  0.12376  1.0000
  O   O2773     1.0  0.87623  0.94458  0.94458  1.0000
  O   O2774     1.0  0.94458  0.87623  0.94457  1.0000
  O   O2775     1.0  0.94458  0.94457  0.87624  1.0000
  O   O2776     1.0  0.87622  0.05543  0.05542  1.0000
  O   O2777     1.0  0.94457  0.12377  0.05543  1.0000
  O   O2778     1.0  0.94458  0.05543  0.12377  1.0000
  O   O2779     1.0  0.12376  0.94457  0.05542  1.0000
  O   O2780     1.0  0.05543  0.87623  0.05542  1.0000
  O   O2781     1.0  0.05542  0.94458  0.12377  1.0000
  O   O2782     1.0  0.12376  0.05542  0.94458  1.0000
  O   O2783     1.0  0.05542  0.12377  0.94458  1.0000
  O   O2784     1.0  0.05542  0.05542  0.87624  1.0000
  O   O2785     1.0  0.73493  0.66652  0.66652  1.0000
  O   O2786     1.0  0.66652  0.73492  0.66652  1.0000
  O   O2787     1.0  0.66651  0.66651  0.73491  1.0000
  O   O2788     1.0  0.73493  0.33348  0.33348  1.0000
  O   O2789     1.0  0.66652  0.26508  0.33348  1.0000
  O   O2790     1.0  0.66651  0.33348  0.26508  1.0000
  O   O2791     1.0  0.26509  0.66652  0.33349  1.0000
  O   O2792     1.0  0.33348  0.73492  0.33348  1.0000
  O   O2793     1.0  0.33349  0.66651  0.26508  1.0000
  O   O2794     1.0  0.26509  0.33349  0.66651  1.0000
  O   O2795     1.0  0.33348  0.26508  0.66652  1.0000
  O   O2796     1.0  0.33349  0.33349  0.73491  1.0000
  O   O2797     1.0  0.26507  0.33348  0.33348  1.0000
  O   O2798     1.0  0.33348  0.26508  0.33348  1.0000
  O   O2799     1.0  0.33349  0.33349  0.26509  1.0000
  O   O2800     1.0  0.26507  0.66652  0.66651  1.0000
  O   O2801     1.0  0.33348  0.73492  0.66652  1.0000
  O   O2802     1.0  0.33349  0.66652  0.73492  1.0000
  O   O2803     1.0  0.73491  0.33348  0.66651  1.0000
  O   O2804     1.0  0.66652  0.26508  0.66652  1.0000
  O   O2805     1.0  0.66651  0.33349  0.73492  1.0000
  O   O2806     1.0  0.73491  0.66651  0.33349  1.0000
  O   O2807     1.0  0.66652  0.73492  0.33348  1.0000
  O   O2808     1.0  0.66651  0.66651  0.26509  1.0000
  O   O2809     1.0  0.23493  0.16652  0.16652  1.0000
  O   O2810     1.0  0.16652  0.23492  0.16652  1.0000
  O   O2811     1.0  0.16651  0.16651  0.23491  1.0000
  O   O2812     1.0  0.23493  0.83348  0.83349  1.0000
  O   O2813     1.0  0.16652  0.76508  0.83348  1.0000
  O   O2814     1.0  0.16651  0.83348  0.76508  1.0000
  O   O2815     1.0  0.76509  0.16652  0.83349  1.0000
  O   O2816     1.0  0.83348  0.23492  0.83348  1.0000
  O   O2817     1.0  0.83348  0.16651  0.76508  1.0000
  O   O2818     1.0  0.76509  0.83349  0.16651  1.0000
  O   O2819     1.0  0.83348  0.76508  0.16652  1.0000
  O   O2820     1.0  0.83349  0.83349  0.23491  1.0000
  O   O2821     1.0  0.76507  0.83348  0.83348  1.0000
  O   O2822     1.0  0.83348  0.76508  0.83348  1.0000
  O   O2823     1.0  0.83349  0.83349  0.76509  1.0000
  O   O2824     1.0  0.76507  0.16652  0.16652  1.0000
  O   O2825     1.0  0.83348  0.23492  0.16652  1.0000
  O   O2826     1.0  0.83349  0.16652  0.23492  1.0000
  O   O2827     1.0  0.23491  0.83348  0.16651  1.0000
  O   O2828     1.0  0.16652  0.76508  0.16652  1.0000
  O   O2829     1.0  0.16651  0.83349  0.23492  1.0000
  O   O2830     1.0  0.23491  0.16651  0.83349  1.0000
  O   O2831     1.0  0.16652  0.23492  0.83348  1.0000
  O   O2832     1.0  0.16651  0.16651  0.76509  1.0000
  O   O2833     1.0  0.50000  0.12957  0.04008  1.0000
  O   O2834     1.0  0.04008  0.50000  0.12956  1.0000
  O   O2835     1.0  0.12956  0.04008  0.50000  1.0000
  O   O2836     1.0  0.50000  0.04009  0.12957  1.0000
  O   O2837     1.0  0.12956  0.50000  0.04008  1.0000
  O   O2838     1.0  0.04007  0.12955  0.50000  1.0000
  O   O2839     1.0  0.50000  0.87043  0.95992  1.0000
  O   O2840     1.0  0.04008  0.50000  0.87043  1.0000
  O   O2841     1.0  0.12957  0.95991  0.50000  1.0000
  O   O2842     1.0  0.50000  0.95991  0.87043  1.0000
  O   O2843     1.0  0.12956  0.50000  0.95993  1.0000
  O   O2844     1.0  0.04009  0.87042  0.50000  1.0000
  O   O2845     1.0  0.50000  0.12955  0.95993  1.0000
  O   O2846     1.0  0.95992  0.50000  0.87044  1.0000
  O   O2847     1.0  0.87043  0.04009  0.50000  1.0000
  O   O2848     1.0  0.50000  0.04008  0.87044  1.0000
  O   O2849     1.0  0.87044  0.50000  0.95992  1.0000
  O   O2850     1.0  0.95991  0.12958  0.50000  1.0000
  O   O2851     1.0  0.50000  0.87045  0.04007  1.0000
  O   O2852     1.0  0.95992  0.50000  0.12957  1.0000
  O   O2853     1.0  0.87044  0.95992  0.50000  1.0000
  O   O2854     1.0  0.50000  0.95992  0.12956  1.0000
  O   O2855     1.0  0.87044  0.50000  0.04007  1.0000
  O   O2856     1.0  0.95993  0.87045  0.50000  1.0000
  O   O2857     1.0  0.00000  0.62957  0.54008  1.0000
  O   O2858     1.0  0.54008  1.00000  0.62956  1.0000
  O   O2859     1.0  0.62956  0.54008  1.00000  1.0000
  O   O2860     1.0  0.00000  0.54009  0.62957  1.0000
  O   O2861     1.0  0.62956  0.00000  0.54008  1.0000
  O   O2862     1.0  0.54007  0.62955  1.00000  1.0000
  O   O2863     1.0  1.00000  0.37043  0.45992  1.0000
  O   O2864     1.0  0.54008  0.00000  0.37043  1.0000
  O   O2865     1.0  0.62957  0.45991  1.00000  1.0000
  O   O2866     1.0  1.00000  0.45991  0.37043  1.0000
  O   O2867     1.0  0.62956  1.00000  0.45993  1.0000
  O   O2868     1.0  0.54009  0.37042  0.00000  1.0000
  O   O2869     1.0  0.00000  0.62955  0.45993  1.0000
  O   O2870     1.0  0.45992  0.00000  0.37044  1.0000
  O   O2871     1.0  0.37043  0.54009  0.00000  1.0000
  O   O2872     1.0  1.00000  0.54008  0.37044  1.0000
  O   O2873     1.0  0.37044  1.00000  0.45992  1.0000
  O   O2874     1.0  0.45991  0.62958  1.00000  1.0000
  O   O2875     1.0  1.00000  0.37045  0.54007  1.0000
  O   O2876     1.0  0.45992  1.00000  0.62957  1.0000
  O   O2877     1.0  0.37044  0.45992  0.00000  1.0000
  O   O2878     1.0  0.00000  0.45992  0.62956  1.0000
  O   O2879     1.0  0.37044  0.00000  0.54007  1.0000
  O   O2880     1.0  0.45993  0.37045  0.00000  1.0000
  Si  Si1       1.0  0.85410  0.58344  0.53464  1.0000
  Si  Si2       1.0  0.53464  0.85410  0.58343  1.0000
  Si  Si3       1.0  0.58343  0.53464  0.85410  1.0000
  Si  Si4       1.0  0.85410  0.53464  0.58343  1.0000
  Si  Si5       1.0  0.58344  0.85410  0.53464  1.0000
  Si  Si6       1.0  0.53464  0.58343  0.85410  1.0000
  Si  Si7       1.0  0.85410  0.41656  0.46536  1.0000
  Si  Si8       1.0  0.53464  0.14590  0.41656  1.0000
  Si  Si9       1.0  0.58344  0.46536  0.14590  1.0000
  Si  Si10      1.0  0.85410  0.46536  0.41656  1.0000
  Si  Si11      1.0  0.58343  0.14590  0.46536  1.0000
  Si  Si12      1.0  0.53464  0.41657  0.14590  1.0000
  Si  Si13      1.0  0.14590  0.58343  0.46536  1.0000
  Si  Si14      1.0  0.46536  0.85410  0.41656  1.0000
  Si  Si15      1.0  0.41657  0.53464  0.14590  1.0000
  Si  Si16      1.0  0.14590  0.53464  0.41657  1.0000
  Si  Si17      1.0  0.41657  0.85410  0.46536  1.0000
  Si  Si18      1.0  0.46536  0.58344  0.14590  1.0000
  Si  Si19      1.0  0.14591  0.41657  0.53464  1.0000
  Si  Si20      1.0  0.46536  0.14590  0.58343  1.0000
  Si  Si21      1.0  0.41657  0.46536  0.85410  1.0000
  Si  Si22      1.0  0.14590  0.46536  0.58343  1.0000
  Si  Si23      1.0  0.41657  0.14590  0.53464  1.0000
  Si  Si24      1.0  0.46535  0.41657  0.85410  1.0000
  Si  Si25      1.0  0.14590  0.41656  0.46536  1.0000
  Si  Si26      1.0  0.46536  0.14590  0.41657  1.0000
  Si  Si27      1.0  0.41657  0.46536  0.14590  1.0000
  Si  Si28      1.0  0.14590  0.46536  0.41657  1.0000
  Si  Si29      1.0  0.41656  0.14590  0.46536  1.0000
  Si  Si30      1.0  0.46536  0.41657  0.14590  1.0000
  Si  Si31      1.0  0.14590  0.58344  0.53464  1.0000
  Si  Si32      1.0  0.46536  0.85410  0.58344  1.0000
  Si  Si33      1.0  0.41656  0.53464  0.85410  1.0000
  Si  Si34      1.0  0.14590  0.53464  0.58344  1.0000
  Si  Si35      1.0  0.41657  0.85410  0.53464  1.0000
  Si  Si36      1.0  0.46536  0.58343  0.85410  1.0000
  Si  Si37      1.0  0.85410  0.41657  0.53464  1.0000
  Si  Si38      1.0  0.53464  0.14590  0.58344  1.0000
  Si  Si39      1.0  0.58343  0.46536  0.85410  1.0000
  Si  Si40      1.0  0.85410  0.46536  0.58343  1.0000
  Si  Si41      1.0  0.58343  0.14590  0.53464  1.0000
  Si  Si42      1.0  0.53464  0.41656  0.85410  1.0000
  Si  Si43      1.0  0.85409  0.58343  0.46536  1.0000
  Si  Si44      1.0  0.53464  0.85410  0.41657  1.0000
  Si  Si45      1.0  0.58343  0.53464  0.14590  1.0000
  Si  Si46      1.0  0.85410  0.53464  0.41657  1.0000
  Si  Si47      1.0  0.58343  0.85410  0.46536  1.0000
  Si  Si48      1.0  0.53465  0.58343  0.14590  1.0000
  Si  Si49      1.0  0.35410  0.08344  0.03464  1.0000
  Si  Si50      1.0  0.03464  0.35410  0.08343  1.0000
  Si  Si51      1.0  0.08343  0.03464  0.35410  1.0000
  Si  Si52      1.0  0.35410  0.03464  0.08343  1.0000
  Si  Si53      1.0  0.08344  0.35410  0.03464  1.0000
  Si  Si54      1.0  0.03464  0.08343  0.35410  1.0000
  Si  Si55      1.0  0.35410  0.91656  0.96536  1.0000
  Si  Si56      1.0  0.03464  0.64590  0.91656  1.0000
  Si  Si57      1.0  0.08344  0.96536  0.64590  1.0000
  Si  Si58      1.0  0.35410  0.96536  0.91656  1.0000
  Si  Si59      1.0  0.08343  0.64590  0.96536  1.0000
  Si  Si60      1.0  0.03464  0.91657  0.64590  1.0000
  Si  Si61      1.0  0.64590  0.08343  0.96536  1.0000
  Si  Si62      1.0  0.96536  0.35410  0.91656  1.0000
  Si  Si63      1.0  0.91657  0.03464  0.64590  1.0000
  Si  Si64      1.0  0.64590  0.03464  0.91657  1.0000
  Si  Si65      1.0  0.91657  0.35410  0.96536  1.0000
  Si  Si66      1.0  0.96536  0.08344  0.64590  1.0000
  Si  Si67      1.0  0.64591  0.91657  0.03464  1.0000
  Si  Si68      1.0  0.96536  0.64590  0.08343  1.0000
  Si  Si69      1.0  0.91657  0.96536  0.35410  1.0000
  Si  Si70      1.0  0.64590  0.96536  0.08343  1.0000
  Si  Si71      1.0  0.91657  0.64590  0.03464  1.0000
  Si  Si72      1.0  0.96535  0.91657  0.35410  1.0000
  Si  Si73      1.0  0.64590  0.91656  0.96536  1.0000
  Si  Si74      1.0  0.96536  0.64590  0.91657  1.0000
  Si  Si75      1.0  0.91657  0.96536  0.64590  1.0000
  Si  Si76      1.0  0.64590  0.96536  0.91657  1.0000
  Si  Si77      1.0  0.91656  0.64590  0.96536  1.0000
  Si  Si78      1.0  0.96536  0.91657  0.64590  1.0000
  Si  Si79      1.0  0.64590  0.08344  0.03464  1.0000
  Si  Si80      1.0  0.96536  0.35410  0.08344  1.0000
  Si  Si81      1.0  0.91656  0.03464  0.35410  1.0000
  Si  Si82      1.0  0.64590  0.03464  0.08344  1.0000
  Si  Si83      1.0  0.91656  0.35410  0.03464  1.0000
  Si  Si84      1.0  0.96536  0.08343  0.35410  1.0000
  Si  Si85      1.0  0.35410  0.91657  0.03464  1.0000
  Si  Si86      1.0  0.03464  0.64590  0.08344  1.0000
  Si  Si87      1.0  0.08343  0.96536  0.35410  1.0000
  Si  Si88      1.0  0.35410  0.96536  0.08343  1.0000
  Si  Si89      1.0  0.08343  0.64590  0.03464  1.0000
  Si  Si90      1.0  0.03464  0.91656  0.35410  1.0000
  Si  Si91      1.0  0.35409  0.08343  0.96536  1.0000
  Si  Si92      1.0  0.03464  0.35410  0.91657  1.0000
  Si  Si93      1.0  0.08343  0.03464  0.64590  1.0000
  Si  Si94      1.0  0.35410  0.03464  0.91657  1.0000
  Si  Si95      1.0  0.08343  0.35410  0.96536  1.0000
  Si  Si96      1.0  0.03465  0.08343  0.64590  1.0000
  Si  Si97      1.0  0.81249  0.63886  0.53478  1.0000
  Si  Si98      1.0  0.53477  0.81249  0.63886  1.0000
  Si  Si99      1.0  0.63886  0.53477  0.81249  1.0000
  Si  Si100     1.0  0.81249  0.53477  0.63886  1.0000
  Si  Si101     1.0  0.63886  0.81249  0.53477  1.0000
  Si  Si102     1.0  0.53477  0.63886  0.81249  1.0000
  Si  Si103     1.0  0.81249  0.36114  0.46523  1.0000
  Si  Si104     1.0  0.53477  0.18751  0.36114  1.0000
  Si  Si105     1.0  0.63886  0.46522  0.18751  1.0000
  Si  Si106     1.0  0.81249  0.46523  0.36114  1.0000
  Si  Si107     1.0  0.63886  0.18751  0.46523  1.0000
  Si  Si108     1.0  0.53477  0.36114  0.18751  1.0000
  Si  Si109     1.0  0.18751  0.63886  0.46523  1.0000
  Si  Si110     1.0  0.46523  0.81249  0.36114  1.0000
  Si  Si111     1.0  0.36114  0.53477  0.18751  1.0000
  Si  Si112     1.0  0.18751  0.53477  0.36114  1.0000
  Si  Si113     1.0  0.36114  0.81249  0.46523  1.0000
  Si  Si114     1.0  0.46522  0.63886  0.18751  1.0000
  Si  Si115     1.0  0.18751  0.36115  0.53477  1.0000
  Si  Si116     1.0  0.46523  0.18751  0.63886  1.0000
  Si  Si117     1.0  0.36114  0.46523  0.81249  1.0000
  Si  Si118     1.0  0.18751  0.46523  0.63886  1.0000
  Si  Si119     1.0  0.36114  0.18751  0.53477  1.0000
  Si  Si120     1.0  0.46523  0.36114  0.81249  1.0000
  Si  Si121     1.0  0.18751  0.36114  0.46522  1.0000
  Si  Si122     1.0  0.46523  0.18751  0.36114  1.0000
  Si  Si123     1.0  0.36114  0.46523  0.18751  1.0000
  Si  Si124     1.0  0.18751  0.46523  0.36114  1.0000
  Si  Si125     1.0  0.36114  0.18751  0.46523  1.0000
  Si  Si126     1.0  0.46523  0.36114  0.18751  1.0000
  Si  Si127     1.0  0.18751  0.63886  0.53477  1.0000
  Si  Si128     1.0  0.46523  0.81249  0.63886  1.0000
  Si  Si129     1.0  0.36114  0.53478  0.81249  1.0000
  Si  Si130     1.0  0.18751  0.53477  0.63886  1.0000
  Si  Si131     1.0  0.36114  0.81249  0.53477  1.0000
  Si  Si132     1.0  0.46523  0.63886  0.81249  1.0000
  Si  Si133     1.0  0.81249  0.36114  0.53477  1.0000
  Si  Si134     1.0  0.53477  0.18751  0.63886  1.0000
  Si  Si135     1.0  0.63886  0.46523  0.81249  1.0000
  Si  Si136     1.0  0.81249  0.46523  0.63886  1.0000
  Si  Si137     1.0  0.63886  0.18751  0.53477  1.0000
  Si  Si138     1.0  0.53478  0.36114  0.81249  1.0000
  Si  Si139     1.0  0.81249  0.63885  0.46523  1.0000
  Si  Si140     1.0  0.53477  0.81249  0.36114  1.0000
  Si  Si141     1.0  0.63886  0.53477  0.18751  1.0000
  Si  Si142     1.0  0.81249  0.53477  0.36114  1.0000
  Si  Si143     1.0  0.63886  0.81249  0.46523  1.0000
  Si  Si144     1.0  0.53477  0.63886  0.18751  1.0000
  Si  Si145     1.0  0.31249  0.13886  0.03478  1.0000
  Si  Si146     1.0  0.03477  0.31249  0.13886  1.0000
  Si  Si147     1.0  0.13886  0.03477  0.31249  1.0000
  Si  Si148     1.0  0.31249  0.03477  0.13886  1.0000
  Si  Si149     1.0  0.13886  0.31249  0.03477  1.0000
  Si  Si150     1.0  0.03477  0.13886  0.31249  1.0000
  Si  Si151     1.0  0.31249  0.86114  0.96523  1.0000
  Si  Si152     1.0  0.03477  0.68751  0.86114  1.0000
  Si  Si153     1.0  0.13886  0.96522  0.68751  1.0000
  Si  Si154     1.0  0.31249  0.96523  0.86114  1.0000
  Si  Si155     1.0  0.13886  0.68751  0.96523  1.0000
  Si  Si156     1.0  0.03477  0.86114  0.68751  1.0000
  Si  Si157     1.0  0.68751  0.13886  0.96523  1.0000
  Si  Si158     1.0  0.96523  0.31249  0.86114  1.0000
  Si  Si159     1.0  0.86114  0.03477  0.68751  1.0000
  Si  Si160     1.0  0.68751  0.03477  0.86114  1.0000
  Si  Si161     1.0  0.86114  0.31249  0.96523  1.0000
  Si  Si162     1.0  0.96522  0.13886  0.68751  1.0000
  Si  Si163     1.0  0.68751  0.86115  0.03477  1.0000
  Si  Si164     1.0  0.96523  0.68751  0.13886  1.0000
  Si  Si165     1.0  0.86114  0.96523  0.31249  1.0000
  Si  Si166     1.0  0.68751  0.96523  0.13886  1.0000
  Si  Si167     1.0  0.86115  0.68751  0.03477  1.0000
  Si  Si168     1.0  0.96523  0.86115  0.31249  1.0000
  Si  Si169     1.0  0.68751  0.86114  0.96522  1.0000
  Si  Si170     1.0  0.96523  0.68751  0.86114  1.0000
  Si  Si171     1.0  0.86114  0.96523  0.68751  1.0000
  Si  Si172     1.0  0.68751  0.96523  0.86114  1.0000
  Si  Si173     1.0  0.86114  0.68751  0.96523  1.0000
  Si  Si174     1.0  0.96523  0.86114  0.68751  1.0000
  Si  Si175     1.0  0.68751  0.13886  0.03477  1.0000
  Si  Si176     1.0  0.96523  0.31249  0.13886  1.0000
  Si  Si177     1.0  0.86114  0.03478  0.31249  1.0000
  Si  Si178     1.0  0.68751  0.03477  0.13886  1.0000
  Si  Si179     1.0  0.86114  0.31249  0.03477  1.0000
  Si  Si180     1.0  0.96523  0.13886  0.31249  1.0000
  Si  Si181     1.0  0.31249  0.86114  0.03477  1.0000
  Si  Si182     1.0  0.03477  0.68751  0.13886  1.0000
  Si  Si183     1.0  0.13886  0.96523  0.31249  1.0000
  Si  Si184     1.0  0.31249  0.96523  0.13886  1.0000
  Si  Si185     1.0  0.13886  0.68751  0.03477  1.0000
  Si  Si186     1.0  0.03478  0.86114  0.31249  1.0000
  Si  Si187     1.0  0.31249  0.13885  0.96523  1.0000
  Si  Si188     1.0  0.03477  0.31249  0.86114  1.0000
  Si  Si189     1.0  0.13886  0.03477  0.68751  1.0000
  Si  Si190     1.0  0.31249  0.03477  0.86114  1.0000
  Si  Si191     1.0  0.13885  0.31249  0.96523  1.0000
  Si  Si192     1.0  0.03477  0.13885  0.68751  1.0000
  Si  Si193     1.0  0.74293  0.63905  0.53477  1.0000
  Si  Si194     1.0  0.53476  0.74293  0.63905  1.0000
  Si  Si195     1.0  0.63905  0.53477  0.74293  1.0000
  Si  Si196     1.0  0.74293  0.53477  0.63905  1.0000
  Si  Si197     1.0  0.63905  0.74293  0.53477  1.0000
  Si  Si198     1.0  0.53476  0.63905  0.74293  1.0000
  Si  Si199     1.0  0.74292  0.36095  0.46523  1.0000
  Si  Si200     1.0  0.53477  0.25707  0.36095  1.0000
  Si  Si201     1.0  0.63905  0.46523  0.25707  1.0000
  Si  Si202     1.0  0.74293  0.46523  0.36095  1.0000
  Si  Si203     1.0  0.63905  0.25707  0.46523  1.0000
  Si  Si204     1.0  0.53477  0.36095  0.25708  1.0000
  Si  Si205     1.0  0.25707  0.63905  0.46523  1.0000
  Si  Si206     1.0  0.46523  0.74293  0.36095  1.0000
  Si  Si207     1.0  0.36095  0.53477  0.25707  1.0000
  Si  Si208     1.0  0.25707  0.53477  0.36095  1.0000
  Si  Si209     1.0  0.36095  0.74293  0.46523  1.0000
  Si  Si210     1.0  0.46523  0.63905  0.25707  1.0000
  Si  Si211     1.0  0.25707  0.36095  0.53476  1.0000
  Si  Si212     1.0  0.46524  0.25707  0.63905  1.0000
  Si  Si213     1.0  0.36095  0.46523  0.74293  1.0000
  Si  Si214     1.0  0.25707  0.46523  0.63905  1.0000
  Si  Si215     1.0  0.36095  0.25707  0.53476  1.0000
  Si  Si216     1.0  0.46524  0.36095  0.74293  1.0000
  Si  Si217     1.0  0.25707  0.36095  0.46523  1.0000
  Si  Si218     1.0  0.46524  0.25707  0.36095  1.0000
  Si  Si219     1.0  0.36095  0.46523  0.25707  1.0000
  Si  Si220     1.0  0.25707  0.46523  0.36095  1.0000
  Si  Si221     1.0  0.36095  0.25707  0.46523  1.0000
  Si  Si222     1.0  0.46524  0.36095  0.25707  1.0000
  Si  Si223     1.0  0.25708  0.63905  0.53477  1.0000
  Si  Si224     1.0  0.46523  0.74293  0.63905  1.0000
  Si  Si225     1.0  0.36095  0.53477  0.74293  1.0000
  Si  Si226     1.0  0.25707  0.53477  0.63905  1.0000
  Si  Si227     1.0  0.36094  0.74293  0.53477  1.0000
  Si  Si228     1.0  0.46523  0.63905  0.74292  1.0000
  Si  Si229     1.0  0.74293  0.36095  0.53477  1.0000
  Si  Si230     1.0  0.53477  0.25707  0.63905  1.0000
  Si  Si231     1.0  0.63905  0.46523  0.74293  1.0000
  Si  Si232     1.0  0.74293  0.46523  0.63905  1.0000
  Si  Si233     1.0  0.63905  0.25707  0.53477  1.0000
  Si  Si234     1.0  0.53477  0.36095  0.74293  1.0000
  Si  Si235     1.0  0.74293  0.63905  0.46524  1.0000
  Si  Si236     1.0  0.53476  0.74293  0.36095  1.0000
  Si  Si237     1.0  0.63905  0.53477  0.25707  1.0000
  Si  Si238     1.0  0.74293  0.53477  0.36095  1.0000
  Si  Si239     1.0  0.63905  0.74293  0.46524  1.0000
  Si  Si240     1.0  0.53476  0.63905  0.25707  1.0000
  Si  Si241     1.0  0.24293  0.13905  0.03477  1.0000
  Si  Si242     1.0  0.03476  0.24293  0.13905  1.0000
  Si  Si243     1.0  0.13905  0.03477  0.24293  1.0000
  Si  Si244     1.0  0.24293  0.03477  0.13905  1.0000
  Si  Si245     1.0  0.13905  0.24293  0.03477  1.0000
  Si  Si246     1.0  0.03476  0.13905  0.24293  1.0000
  Si  Si247     1.0  0.24292  0.86095  0.96523  1.0000
  Si  Si248     1.0  0.03477  0.75707  0.86095  1.0000
  Si  Si249     1.0  0.13905  0.96523  0.75707  1.0000
  Si  Si250     1.0  0.24292  0.96523  0.86095  1.0000
  Si  Si251     1.0  0.13905  0.75707  0.96523  1.0000
  Si  Si252     1.0  0.03477  0.86095  0.75708  1.0000
  Si  Si253     1.0  0.75707  0.13905  0.96523  1.0000
  Si  Si254     1.0  0.96523  0.24293  0.86095  1.0000
  Si  Si255     1.0  0.86095  0.03477  0.75707  1.0000
  Si  Si256     1.0  0.75707  0.03477  0.86095  1.0000
  Si  Si257     1.0  0.86095  0.24293  0.96523  1.0000
  Si  Si258     1.0  0.96523  0.13905  0.75707  1.0000
  Si  Si259     1.0  0.75707  0.86095  0.03476  1.0000
  Si  Si260     1.0  0.96524  0.75707  0.13905  1.0000
  Si  Si261     1.0  0.86095  0.96523  0.24293  1.0000
  Si  Si262     1.0  0.75707  0.96523  0.13905  1.0000
  Si  Si263     1.0  0.86095  0.75708  0.03476  1.0000
  Si  Si264     1.0  0.96524  0.86095  0.24293  1.0000
  Si  Si265     1.0  0.75707  0.86095  0.96523  1.0000
  Si  Si266     1.0  0.96524  0.75707  0.86095  1.0000
  Si  Si267     1.0  0.86095  0.96523  0.75707  1.0000
  Si  Si268     1.0  0.75707  0.96523  0.86095  1.0000
  Si  Si269     1.0  0.86095  0.75707  0.96523  1.0000
  Si  Si270     1.0  0.96524  0.86095  0.75707  1.0000
  Si  Si271     1.0  0.75708  0.13905  0.03477  1.0000
  Si  Si272     1.0  0.96523  0.24293  0.13905  1.0000
  Si  Si273     1.0  0.86095  0.03477  0.24293  1.0000
  Si  Si274     1.0  0.75708  0.03477  0.13905  1.0000
  Si  Si275     1.0  0.86095  0.24293  0.03477  1.0000
  Si  Si276     1.0  0.96523  0.13905  0.24292  1.0000
  Si  Si277     1.0  0.24293  0.86095  0.03477  1.0000
  Si  Si278     1.0  0.03477  0.75707  0.13905  1.0000
  Si  Si279     1.0  0.13905  0.96523  0.24293  1.0000
  Si  Si280     1.0  0.24293  0.96523  0.13905  1.0000
  Si  Si281     1.0  0.13905  0.75707  0.03477  1.0000
  Si  Si282     1.0  0.03477  0.86095  0.24293  1.0000
  Si  Si283     1.0  0.24293  0.13905  0.96524  1.0000
  Si  Si284     1.0  0.03476  0.24293  0.86095  1.0000
  Si  Si285     1.0  0.13905  0.03477  0.75707  1.0000
  Si  Si286     1.0  0.24293  0.03477  0.86095  1.0000
  Si  Si287     1.0  0.13905  0.24293  0.96524  1.0000
  Si  Si288     1.0  0.03476  0.13905  0.75707  1.0000
  Si  Si289     1.0  0.70150  0.58346  0.53466  1.0000
  Si  Si290     1.0  0.53466  0.70150  0.58346  1.0000
  Si  Si291     1.0  0.58346  0.53467  0.70150  1.0000
  Si  Si292     1.0  0.70150  0.53466  0.58346  1.0000
  Si  Si293     1.0  0.58345  0.70150  0.53466  1.0000
  Si  Si294     1.0  0.53466  0.58346  0.70150  1.0000
  Si  Si295     1.0  0.70150  0.41654  0.46534  1.0000
  Si  Si296     1.0  0.53466  0.29850  0.41654  1.0000
  Si  Si297     1.0  0.58346  0.46534  0.29850  1.0000
  Si  Si298     1.0  0.70150  0.46534  0.41654  1.0000
  Si  Si299     1.0  0.58346  0.29849  0.46534  1.0000
  Si  Si300     1.0  0.53466  0.41654  0.29850  1.0000
  Si  Si301     1.0  0.29850  0.58346  0.46534  1.0000
  Si  Si302     1.0  0.46534  0.70150  0.41654  1.0000
  Si  Si303     1.0  0.41654  0.53466  0.29850  1.0000
  Si  Si304     1.0  0.29850  0.53466  0.41654  1.0000
  Si  Si305     1.0  0.41654  0.70151  0.46534  1.0000
  Si  Si306     1.0  0.46534  0.58345  0.29850  1.0000
  Si  Si307     1.0  0.29850  0.41654  0.53466  1.0000
  Si  Si308     1.0  0.46534  0.29850  0.58346  1.0000
  Si  Si309     1.0  0.41654  0.46534  0.70150  1.0000
  Si  Si310     1.0  0.29850  0.46534  0.58346  1.0000
  Si  Si311     1.0  0.41654  0.29850  0.53466  1.0000
  Si  Si312     1.0  0.46534  0.41654  0.70150  1.0000
  Si  Si313     1.0  0.29850  0.41654  0.46534  1.0000
  Si  Si314     1.0  0.46534  0.29850  0.41654  1.0000
  Si  Si315     1.0  0.41654  0.46533  0.29850  1.0000
  Si  Si316     1.0  0.29850  0.46534  0.41654  1.0000
  Si  Si317     1.0  0.41655  0.29850  0.46534  1.0000
  Si  Si318     1.0  0.46534  0.41654  0.29850  1.0000
  Si  Si319     1.0  0.29850  0.58346  0.53466  1.0000
  Si  Si320     1.0  0.46534  0.70150  0.58346  1.0000
  Si  Si321     1.0  0.41654  0.53466  0.70150  1.0000
  Si  Si322     1.0  0.29850  0.53466  0.58346  1.0000
  Si  Si323     1.0  0.41654  0.70151  0.53466  1.0000
  Si  Si324     1.0  0.46534  0.58346  0.70150  1.0000
  Si  Si325     1.0  0.70150  0.41654  0.53466  1.0000
  Si  Si326     1.0  0.53466  0.29850  0.58346  1.0000
  Si  Si327     1.0  0.58346  0.46534  0.70150  1.0000
  Si  Si328     1.0  0.70150  0.46534  0.58346  1.0000
  Si  Si329     1.0  0.58346  0.29849  0.53466  1.0000
  Si  Si330     1.0  0.53466  0.41655  0.70150  1.0000
  Si  Si331     1.0  0.70150  0.58346  0.46534  1.0000
  Si  Si332     1.0  0.53466  0.70150  0.41654  1.0000
  Si  Si333     1.0  0.58346  0.53466  0.29850  1.0000
  Si  Si334     1.0  0.70150  0.53466  0.41654  1.0000
  Si  Si335     1.0  0.58346  0.70150  0.46534  1.0000
  Si  Si336     1.0  0.53466  0.58346  0.29850  1.0000
  Si  Si337     1.0  0.20150  0.08346  0.03466  1.0000
  Si  Si338     1.0  0.03466  0.20150  0.08346  1.0000
  Si  Si339     1.0  0.08346  0.03467  0.20150  1.0000
  Si  Si340     1.0  0.20150  0.03466  0.08346  1.0000
  Si  Si341     1.0  0.08345  0.20150  0.03466  1.0000
  Si  Si342     1.0  0.03466  0.08346  0.20150  1.0000
  Si  Si343     1.0  0.20150  0.91654  0.96534  1.0000
  Si  Si344     1.0  0.03466  0.79850  0.91654  1.0000
  Si  Si345     1.0  0.08346  0.96534  0.79850  1.0000
  Si  Si346     1.0  0.20150  0.96534  0.91654  1.0000
  Si  Si347     1.0  0.08346  0.79849  0.96534  1.0000
  Si  Si348     1.0  0.03466  0.91654  0.79850  1.0000
  Si  Si349     1.0  0.79850  0.08346  0.96534  1.0000
  Si  Si350     1.0  0.96534  0.20150  0.91654  1.0000
  Si  Si351     1.0  0.91654  0.03466  0.79850  1.0000
  Si  Si352     1.0  0.79850  0.03466  0.91654  1.0000
  Si  Si353     1.0  0.91654  0.20151  0.96534  1.0000
  Si  Si354     1.0  0.96534  0.08345  0.79850  1.0000
  Si  Si355     1.0  0.79850  0.91654  0.03466  1.0000
  Si  Si356     1.0  0.96534  0.79850  0.08346  1.0000
  Si  Si357     1.0  0.91654  0.96534  0.20150  1.0000
  Si  Si358     1.0  0.79850  0.96534  0.08346  1.0000
  Si  Si359     1.0  0.91654  0.79850  0.03466  1.0000
  Si  Si360     1.0  0.96534  0.91654  0.20150  1.0000
  Si  Si361     1.0  0.79850  0.91654  0.96534  1.0000
  Si  Si362     1.0  0.96534  0.79850  0.91654  1.0000
  Si  Si363     1.0  0.91654  0.96533  0.79850  1.0000
  Si  Si364     1.0  0.79850  0.96534  0.91654  1.0000
  Si  Si365     1.0  0.91655  0.79850  0.96534  1.0000
  Si  Si366     1.0  0.96534  0.91654  0.79850  1.0000
  Si  Si367     1.0  0.79850  0.08346  0.03466  1.0000
  Si  Si368     1.0  0.96534  0.20150  0.08346  1.0000
  Si  Si369     1.0  0.91654  0.03466  0.20150  1.0000
  Si  Si370     1.0  0.79850  0.03466  0.08346  1.0000
  Si  Si371     1.0  0.91654  0.20151  0.03466  1.0000
  Si  Si372     1.0  0.96534  0.08346  0.20150  1.0000
  Si  Si373     1.0  0.20150  0.91654  0.03466  1.0000
  Si  Si374     1.0  0.03466  0.79850  0.08346  1.0000
  Si  Si375     1.0  0.08346  0.96534  0.20150  1.0000
  Si  Si376     1.0  0.20150  0.96534  0.08346  1.0000
  Si  Si377     1.0  0.08346  0.79849  0.03466  1.0000
  Si  Si378     1.0  0.03466  0.91655  0.20150  1.0000
  Si  Si379     1.0  0.20150  0.08346  0.96534  1.0000
  Si  Si380     1.0  0.03466  0.20150  0.91654  1.0000
  Si  Si381     1.0  0.08346  0.03466  0.79850  1.0000
  Si  Si382     1.0  0.20150  0.03466  0.91654  1.0000
  Si  Si383     1.0  0.08346  0.20150  0.96534  1.0000
  Si  Si384     1.0  0.03466  0.08346  0.79850  1.0000
  Si  Si385     1.0  0.63234  0.58340  0.53450  1.0000
  Si  Si386     1.0  0.53449  0.63234  0.58340  1.0000
  Si  Si387     1.0  0.58340  0.53450  0.63234  1.0000
  Si  Si388     1.0  0.63234  0.53450  0.58340  1.0000
  Si  Si389     1.0  0.58340  0.63234  0.53450  1.0000
  Si  Si390     1.0  0.53450  0.58340  0.63234  1.0000
  Si  Si391     1.0  0.63235  0.41660  0.46550  1.0000
  Si  Si392     1.0  0.53450  0.36766  0.41660  1.0000
  Si  Si393     1.0  0.58340  0.46550  0.36766  1.0000
  Si  Si394     1.0  0.63234  0.46550  0.41660  1.0000
  Si  Si395     1.0  0.58340  0.36765  0.46550  1.0000
  Si  Si396     1.0  0.53450  0.41660  0.36765  1.0000
  Si  Si397     1.0  0.36766  0.58340  0.46550  1.0000
  Si  Si398     1.0  0.46550  0.63234  0.41660  1.0000
  Si  Si399     1.0  0.41660  0.53450  0.36766  1.0000
  Si  Si400     1.0  0.36766  0.53450  0.41660  1.0000
  Si  Si401     1.0  0.41660  0.63234  0.46550  1.0000
  Si  Si402     1.0  0.46550  0.58340  0.36766  1.0000
  Si  Si403     1.0  0.36766  0.41660  0.53450  1.0000
  Si  Si404     1.0  0.46550  0.36766  0.58340  1.0000
  Si  Si405     1.0  0.41660  0.46550  0.63234  1.0000
  Si  Si406     1.0  0.36766  0.46550  0.58340  1.0000
  Si  Si407     1.0  0.41660  0.36766  0.53450  1.0000
  Si  Si408     1.0  0.46550  0.41660  0.63234  1.0000
  Si  Si409     1.0  0.36766  0.41660  0.46550  1.0000
  Si  Si410     1.0  0.46551  0.36766  0.41660  1.0000
  Si  Si411     1.0  0.41660  0.46550  0.36766  1.0000
  Si  Si412     1.0  0.36766  0.46550  0.41660  1.0000
  Si  Si413     1.0  0.41660  0.36766  0.46550  1.0000
  Si  Si414     1.0  0.46550  0.41660  0.36766  1.0000
  Si  Si415     1.0  0.36765  0.58340  0.53450  1.0000
  Si  Si416     1.0  0.46550  0.63234  0.58340  1.0000
  Si  Si417     1.0  0.41660  0.53450  0.63234  1.0000
  Si  Si418     1.0  0.36766  0.53450  0.58340  1.0000
  Si  Si419     1.0  0.41660  0.63235  0.53450  1.0000
  Si  Si420     1.0  0.46550  0.58340  0.63235  1.0000
  Si  Si421     1.0  0.63234  0.41660  0.53450  1.0000
  Si  Si422     1.0  0.53450  0.36766  0.58340  1.0000
  Si  Si423     1.0  0.58340  0.46550  0.63234  1.0000
  Si  Si424     1.0  0.63234  0.46550  0.58340  1.0000
  Si  Si425     1.0  0.58340  0.36766  0.53450  1.0000
  Si  Si426     1.0  0.53450  0.41660  0.63234  1.0000
  Si  Si427     1.0  0.63234  0.58340  0.46550  1.0000
  Si  Si428     1.0  0.53450  0.63234  0.41660  1.0000
  Si  Si429     1.0  0.58340  0.53450  0.36766  1.0000
  Si  Si430     1.0  0.63234  0.53450  0.41660  1.0000
  Si  Si431     1.0  0.58340  0.63234  0.46550  1.0000
  Si  Si432     1.0  0.53450  0.58340  0.36766  1.0000
  Si  Si433     1.0  0.13234  0.08340  0.03450  1.0000
  Si  Si434     1.0  0.03449  0.13234  0.08340  1.0000
  Si  Si435     1.0  0.08340  0.03450  0.13234  1.0000
  Si  Si436     1.0  0.13234  0.03450  0.08340  1.0000
  Si  Si437     1.0  0.08340  0.13234  0.03450  1.0000
  Si  Si438     1.0  0.03450  0.08340  0.13234  1.0000
  Si  Si439     1.0  0.13235  0.91660  0.96550  1.0000
  Si  Si440     1.0  0.03450  0.86766  0.91660  1.0000
  Si  Si441     1.0  0.08340  0.96550  0.86766  1.0000
  Si  Si442     1.0  0.13234  0.96550  0.91660  1.0000
  Si  Si443     1.0  0.08340  0.86765  0.96550  1.0000
  Si  Si444     1.0  0.03450  0.91660  0.86765  1.0000
  Si  Si445     1.0  0.86766  0.08340  0.96550  1.0000
  Si  Si446     1.0  0.96550  0.13234  0.91660  1.0000
  Si  Si447     1.0  0.91660  0.03450  0.86766  1.0000
  Si  Si448     1.0  0.86766  0.03450  0.91660  1.0000
  Si  Si449     1.0  0.91660  0.13234  0.96550  1.0000
  Si  Si450     1.0  0.96550  0.08340  0.86766  1.0000
  Si  Si451     1.0  0.86766  0.91660  0.03450  1.0000
  Si  Si452     1.0  0.96550  0.86766  0.08340  1.0000
  Si  Si453     1.0  0.91660  0.96550  0.13234  1.0000
  Si  Si454     1.0  0.86766  0.96550  0.08340  1.0000
  Si  Si455     1.0  0.91660  0.86766  0.03450  1.0000
  Si  Si456     1.0  0.96550  0.91660  0.13234  1.0000
  Si  Si457     1.0  0.86766  0.91660  0.96550  1.0000
  Si  Si458     1.0  0.96551  0.86766  0.91660  1.0000
  Si  Si459     1.0  0.91660  0.96550  0.86766  1.0000
  Si  Si460     1.0  0.86766  0.96550  0.91660  1.0000
  Si  Si461     1.0  0.91660  0.86766  0.96550  1.0000
  Si  Si462     1.0  0.96550  0.91660  0.86766  1.0000
  Si  Si463     1.0  0.86765  0.08340  0.03450  1.0000
  Si  Si464     1.0  0.96550  0.13234  0.08340  1.0000
  Si  Si465     1.0  0.91660  0.03450  0.13234  1.0000
  Si  Si466     1.0  0.86766  0.03450  0.08340  1.0000
  Si  Si467     1.0  0.91660  0.13235  0.03450  1.0000
  Si  Si468     1.0  0.96550  0.08340  0.13235  1.0000
  Si  Si469     1.0  0.13234  0.91660  0.03450  1.0000
  Si  Si470     1.0  0.03450  0.86766  0.08340  1.0000
  Si  Si471     1.0  0.08340  0.96550  0.13234  1.0000
  Si  Si472     1.0  0.13234  0.96550  0.08340  1.0000
  Si  Si473     1.0  0.08340  0.86766  0.03450  1.0000
  Si  Si474     1.0  0.03450  0.91660  0.13234  1.0000
  Si  Si475     1.0  0.13234  0.08340  0.96550  1.0000
  Si  Si476     1.0  0.03450  0.13234  0.91660  1.0000
  Si  Si477     1.0  0.08340  0.03450  0.86766  1.0000
  Si  Si478     1.0  0.13234  0.03450  0.91660  1.0000
  Si  Si479     1.0  0.08340  0.13234  0.96550  1.0000
  Si  Si480     1.0  0.03450  0.08340  0.86766  1.0000
  Si  Si481     1.0  0.57684  0.08343  0.03466  1.0000
  Si  Si482     1.0  0.03466  0.57684  0.08342  1.0000
  Si  Si483     1.0  0.08342  0.03466  0.57684  1.0000
  Si  Si484     1.0  0.57684  0.03466  0.08342  1.0000
  Si  Si485     1.0  0.08343  0.57684  0.03466  1.0000
  Si  Si486     1.0  0.03466  0.08342  0.57684  1.0000
  Si  Si487     1.0  0.57685  0.91658  0.96534  1.0000
  Si  Si488     1.0  0.03466  0.42316  0.91658  1.0000
  Si  Si489     1.0  0.08342  0.96534  0.42315  1.0000
  Si  Si490     1.0  0.57685  0.96534  0.91657  1.0000
  Si  Si491     1.0  0.08342  0.42316  0.96534  1.0000
  Si  Si492     1.0  0.03466  0.91658  0.42316  1.0000
  Si  Si493     1.0  0.42316  0.08342  0.96534  1.0000
  Si  Si494     1.0  0.96534  0.57684  0.91658  1.0000
  Si  Si495     1.0  0.91658  0.03466  0.42316  1.0000
  Si  Si496     1.0  0.42316  0.03466  0.91658  1.0000
  Si  Si497     1.0  0.91658  0.57684  0.96534  1.0000
  Si  Si498     1.0  0.96534  0.08342  0.42316  1.0000
  Si  Si499     1.0  0.42316  0.91658  0.03466  1.0000
  Si  Si500     1.0  0.96534  0.42316  0.08342  1.0000
  Si  Si501     1.0  0.91658  0.96534  0.57684  1.0000
  Si  Si502     1.0  0.42316  0.96534  0.08342  1.0000
  Si  Si503     1.0  0.91657  0.42316  0.03466  1.0000
  Si  Si504     1.0  0.96533  0.91658  0.57684  1.0000
  Si  Si505     1.0  0.42316  0.91657  0.96534  1.0000
  Si  Si506     1.0  0.96534  0.42316  0.91658  1.0000
  Si  Si507     1.0  0.91658  0.96534  0.42316  1.0000
  Si  Si508     1.0  0.42316  0.96534  0.91658  1.0000
  Si  Si509     1.0  0.91657  0.42316  0.96534  1.0000
  Si  Si510     1.0  0.96534  0.91658  0.42316  1.0000
  Si  Si511     1.0  0.42315  0.08342  0.03466  1.0000
  Si  Si512     1.0  0.96534  0.57684  0.08342  1.0000
  Si  Si513     1.0  0.91658  0.03466  0.57684  1.0000
  Si  Si514     1.0  0.42315  0.03466  0.08343  1.0000
  Si  Si515     1.0  0.91658  0.57684  0.03466  1.0000
  Si  Si516     1.0  0.96534  0.08342  0.57684  1.0000
  Si  Si517     1.0  0.57684  0.91658  0.03466  1.0000
  Si  Si518     1.0  0.03466  0.42316  0.08343  1.0000
  Si  Si519     1.0  0.08342  0.96534  0.57684  1.0000
  Si  Si520     1.0  0.57684  0.96534  0.08342  1.0000
  Si  Si521     1.0  0.08342  0.42316  0.03466  1.0000
  Si  Si522     1.0  0.03466  0.91658  0.57684  1.0000
  Si  Si523     1.0  0.57684  0.08342  0.96534  1.0000
  Si  Si524     1.0  0.03466  0.57684  0.91658  1.0000
  Si  Si525     1.0  0.08342  0.03467  0.42316  1.0000
  Si  Si526     1.0  0.57684  0.03466  0.91658  1.0000
  Si  Si527     1.0  0.08342  0.57684  0.96534  1.0000
  Si  Si528     1.0  0.03467  0.08342  0.42316  1.0000
  Si  Si529     1.0  0.07684  0.58343  0.53466  1.0000
  Si  Si530     1.0  0.53466  0.07684  0.58342  1.0000
  Si  Si531     1.0  0.58342  0.53466  0.07684  1.0000
  Si  Si532     1.0  0.07684  0.53466  0.58342  1.0000
  Si  Si533     1.0  0.58343  0.07684  0.53466  1.0000
  Si  Si534     1.0  0.53466  0.58342  0.07684  1.0000
  Si  Si535     1.0  0.07685  0.41658  0.46534  1.0000
  Si  Si536     1.0  0.53466  0.92316  0.41658  1.0000
  Si  Si537     1.0  0.58342  0.46534  0.92315  1.0000
  Si  Si538     1.0  0.07685  0.46534  0.41657  1.0000
  Si  Si539     1.0  0.58342  0.92316  0.46534  1.0000
  Si  Si540     1.0  0.53466  0.41658  0.92316  1.0000
  Si  Si541     1.0  0.92316  0.58342  0.46534  1.0000
  Si  Si542     1.0  0.46534  0.07684  0.41658  1.0000
  Si  Si543     1.0  0.41658  0.53466  0.92316  1.0000
  Si  Si544     1.0  0.92316  0.53466  0.41658  1.0000
  Si  Si545     1.0  0.41658  0.07684  0.46534  1.0000
  Si  Si546     1.0  0.46534  0.58342  0.92316  1.0000
  Si  Si547     1.0  0.92316  0.41658  0.53466  1.0000
  Si  Si548     1.0  0.46534  0.92316  0.58342  1.0000
  Si  Si549     1.0  0.41658  0.46533  0.07684  1.0000
  Si  Si550     1.0  0.92316  0.46534  0.58342  1.0000
  Si  Si551     1.0  0.41657  0.92316  0.53466  1.0000
  Si  Si552     1.0  0.46533  0.41658  0.07684  1.0000
  Si  Si553     1.0  0.92316  0.41657  0.46534  1.0000
  Si  Si554     1.0  0.46534  0.92316  0.41658  1.0000
  Si  Si555     1.0  0.41658  0.46534  0.92316  1.0000
  Si  Si556     1.0  0.92316  0.46534  0.41658  1.0000
  Si  Si557     1.0  0.41657  0.92316  0.46534  1.0000
  Si  Si558     1.0  0.46534  0.41658  0.92316  1.0000
  Si  Si559     1.0  0.92315  0.58342  0.53466  1.0000
  Si  Si560     1.0  0.46534  0.07684  0.58342  1.0000
  Si  Si561     1.0  0.41658  0.53466  0.07684  1.0000
  Si  Si562     1.0  0.92315  0.53466  0.58343  1.0000
  Si  Si563     1.0  0.41658  0.07685  0.53466  1.0000
  Si  Si564     1.0  0.46534  0.58342  0.07684  1.0000
  Si  Si565     1.0  0.07684  0.41658  0.53466  1.0000
  Si  Si566     1.0  0.53466  0.92316  0.58342  1.0000
  Si  Si567     1.0  0.58342  0.46534  0.07684  1.0000
  Si  Si568     1.0  0.07684  0.46534  0.58342  1.0000
  Si  Si569     1.0  0.58342  0.92316  0.53466  1.0000
  Si  Si570     1.0  0.53466  0.41658  0.07684  1.0000
  Si  Si571     1.0  0.07684  0.58342  0.46534  1.0000
  Si  Si572     1.0  0.53466  0.07684  0.41658  1.0000
  Si  Si573     1.0  0.58342  0.53466  0.92316  1.0000
  Si  Si574     1.0  0.07684  0.53466  0.41658  1.0000
  Si  Si575     1.0  0.58343  0.07684  0.46534  1.0000
  Si  Si576     1.0  0.53467  0.58342  0.92316  1.0000
  Si  Si577     1.0  0.53466  0.13829  0.03481  1.0000
  Si  Si578     1.0  0.03481  0.53466  0.13830  1.0000
  Si  Si579     1.0  0.13829  0.03481  0.53466  1.0000
  Si  Si580     1.0  0.53466  0.03481  0.13830  1.0000
  Si  Si581     1.0  0.13829  0.53466  0.03481  1.0000
  Si  Si582     1.0  0.03481  0.13829  0.53466  1.0000
  Si  Si583     1.0  0.53466  0.86170  0.96519  1.0000
  Si  Si584     1.0  0.03481  0.46534  0.86170  1.0000
  Si  Si585     1.0  0.13829  0.96518  0.46534  1.0000
  Si  Si586     1.0  0.53466  0.96519  0.86170  1.0000
  Si  Si587     1.0  0.13830  0.46534  0.96519  1.0000
  Si  Si588     1.0  0.03481  0.86170  0.46534  1.0000
  Si  Si589     1.0  0.46534  0.13829  0.96519  1.0000
  Si  Si590     1.0  0.96519  0.53466  0.86170  1.0000
  Si  Si591     1.0  0.86171  0.03482  0.46534  1.0000
  Si  Si592     1.0  0.46534  0.03481  0.86171  1.0000
  Si  Si593     1.0  0.86170  0.53466  0.96519  1.0000
  Si  Si594     1.0  0.96518  0.13829  0.46533  1.0000
  Si  Si595     1.0  0.46534  0.86171  0.03481  1.0000
  Si  Si596     1.0  0.96519  0.46534  0.13829  1.0000
  Si  Si597     1.0  0.86171  0.96519  0.53466  1.0000
  Si  Si598     1.0  0.46534  0.96519  0.13829  1.0000
  Si  Si599     1.0  0.86171  0.46534  0.03481  1.0000
  Si  Si600     1.0  0.96519  0.86171  0.53466  1.0000
  Si  Si601     1.0  0.46534  0.86171  0.96519  1.0000
  Si  Si602     1.0  0.96519  0.46534  0.86170  1.0000
  Si  Si603     1.0  0.86171  0.96519  0.46534  1.0000
  Si  Si604     1.0  0.46534  0.96519  0.86170  1.0000
  Si  Si605     1.0  0.86171  0.46534  0.96519  1.0000
  Si  Si606     1.0  0.96519  0.86171  0.46534  1.0000
  Si  Si607     1.0  0.46534  0.13830  0.03481  1.0000
  Si  Si608     1.0  0.96519  0.53466  0.13830  1.0000
  Si  Si609     1.0  0.86171  0.03482  0.53466  1.0000
  Si  Si610     1.0  0.46534  0.03481  0.13830  1.0000
  Si  Si611     1.0  0.86170  0.53466  0.03481  1.0000
  Si  Si612     1.0  0.96519  0.13830  0.53466  1.0000
  Si  Si613     1.0  0.53466  0.86171  0.03481  1.0000
  Si  Si614     1.0  0.03481  0.46534  0.13830  1.0000
  Si  Si615     1.0  0.13829  0.96518  0.53466  1.0000
  Si  Si616     1.0  0.53466  0.96519  0.13829  1.0000
  Si  Si617     1.0  0.13830  0.46534  0.03481  1.0000
  Si  Si618     1.0  0.03482  0.86171  0.53467  1.0000
  Si  Si619     1.0  0.53466  0.13829  0.96519  1.0000
  Si  Si620     1.0  0.03481  0.53466  0.86170  1.0000
  Si  Si621     1.0  0.13829  0.03481  0.46534  1.0000
  Si  Si622     1.0  0.53466  0.03481  0.86171  1.0000
  Si  Si623     1.0  0.13829  0.53466  0.96519  1.0000
  Si  Si624     1.0  0.03481  0.13829  0.46534  1.0000
  Si  Si625     1.0  0.03466  0.63829  0.53481  1.0000
  Si  Si626     1.0  0.53481  0.03466  0.63830  1.0000
  Si  Si627     1.0  0.63829  0.53481  0.03466  1.0000
  Si  Si628     1.0  0.03466  0.53481  0.63830  1.0000
  Si  Si629     1.0  0.63829  0.03466  0.53481  1.0000
  Si  Si630     1.0  0.53481  0.63829  0.03466  1.0000
  Si  Si631     1.0  0.03466  0.36170  0.46519  1.0000
  Si  Si632     1.0  0.53481  0.96534  0.36170  1.0000
  Si  Si633     1.0  0.63830  0.46518  0.96534  1.0000
  Si  Si634     1.0  0.03466  0.46519  0.36170  1.0000
  Si  Si635     1.0  0.63830  0.96534  0.46519  1.0000
  Si  Si636     1.0  0.53481  0.36170  0.96534  1.0000
  Si  Si637     1.0  0.96534  0.63829  0.46519  1.0000
  Si  Si638     1.0  0.46519  0.03466  0.36170  1.0000
  Si  Si639     1.0  0.36171  0.53482  0.96534  1.0000
  Si  Si640     1.0  0.96534  0.53481  0.36171  1.0000
  Si  Si641     1.0  0.36170  0.03466  0.46519  1.0000
  Si  Si642     1.0  0.46518  0.63829  0.96533  1.0000
  Si  Si643     1.0  0.96534  0.36171  0.53481  1.0000
  Si  Si644     1.0  0.46519  0.96534  0.63829  1.0000
  Si  Si645     1.0  0.36171  0.46519  0.03466  1.0000
  Si  Si646     1.0  0.96534  0.46519  0.63829  1.0000
  Si  Si647     1.0  0.36171  0.96534  0.53481  1.0000
  Si  Si648     1.0  0.46519  0.36171  0.03466  1.0000
  Si  Si649     1.0  0.96534  0.36171  0.46519  1.0000
  Si  Si650     1.0  0.46519  0.96534  0.36171  1.0000
  Si  Si651     1.0  0.36171  0.46519  0.96534  1.0000
  Si  Si652     1.0  0.96534  0.46519  0.36170  1.0000
  Si  Si653     1.0  0.36171  0.96534  0.46519  1.0000
  Si  Si654     1.0  0.46519  0.36171  0.96534  1.0000
  Si  Si655     1.0  0.96534  0.63830  0.53481  1.0000
  Si  Si656     1.0  0.46519  0.03466  0.63830  1.0000
  Si  Si657     1.0  0.36171  0.53482  0.03466  1.0000
  Si  Si658     1.0  0.96534  0.53481  0.63830  1.0000
  Si  Si659     1.0  0.36170  0.03466  0.53481  1.0000
  Si  Si660     1.0  0.46518  0.63830  0.03466  1.0000
  Si  Si661     1.0  0.03466  0.36171  0.53481  1.0000
  Si  Si662     1.0  0.53481  0.96534  0.63830  1.0000
  Si  Si663     1.0  0.63829  0.46518  0.03466  1.0000
  Si  Si664     1.0  0.03466  0.46519  0.63829  1.0000
  Si  Si665     1.0  0.63830  0.96534  0.53481  1.0000
  Si  Si666     1.0  0.53482  0.36171  0.03467  1.0000
  Si  Si667     1.0  0.03466  0.63829  0.46519  1.0000
  Si  Si668     1.0  0.53481  0.03466  0.36171  1.0000
  Si  Si669     1.0  0.63829  0.53481  0.96534  1.0000
  Si  Si670     1.0  0.03466  0.53481  0.36171  1.0000
  Si  Si671     1.0  0.63829  0.03466  0.46519  1.0000
  Si  Si672     1.0  0.53481  0.63829  0.96534  1.0000
  Si  Si673     1.0  0.69439  0.64552  0.81259  1.0000
  Si  Si674     1.0  0.81259  0.69439  0.64552  1.0000
  Si  Si675     1.0  0.64552  0.81259  0.69440  1.0000
  Si  Si676     1.0  0.69440  0.81259  0.64552  1.0000
  Si  Si677     1.0  0.64552  0.69440  0.81259  1.0000
  Si  Si678     1.0  0.81259  0.64552  0.69440  1.0000
  Si  Si679     1.0  0.69440  0.35448  0.18741  1.0000
  Si  Si680     1.0  0.81259  0.30560  0.35448  1.0000
  Si  Si681     1.0  0.64552  0.18741  0.30560  1.0000
  Si  Si682     1.0  0.69440  0.18741  0.35448  1.0000
  Si  Si683     1.0  0.64552  0.30560  0.18741  1.0000
  Si  Si684     1.0  0.81259  0.35448  0.30560  1.0000
  Si  Si685     1.0  0.30560  0.64552  0.18741  1.0000
  Si  Si686     1.0  0.18741  0.69440  0.35447  1.0000
  Si  Si687     1.0  0.35448  0.81259  0.30560  1.0000
  Si  Si688     1.0  0.30560  0.81259  0.35448  1.0000
  Si  Si689     1.0  0.35448  0.69439  0.18741  1.0000
  Si  Si690     1.0  0.18741  0.64552  0.30561  1.0000
  Si  Si691     1.0  0.30560  0.35448  0.81259  1.0000
  Si  Si692     1.0  0.18741  0.30561  0.64552  1.0000
  Si  Si693     1.0  0.35448  0.18741  0.69440  1.0000
  Si  Si694     1.0  0.30560  0.18741  0.64552  1.0000
  Si  Si695     1.0  0.35448  0.30561  0.81259  1.0000
  Si  Si696     1.0  0.18741  0.35448  0.69440  1.0000
  Si  Si697     1.0  0.30561  0.35448  0.18741  1.0000
  Si  Si698     1.0  0.18741  0.30561  0.35448  1.0000
  Si  Si699     1.0  0.35448  0.18741  0.30560  1.0000
  Si  Si700     1.0  0.30561  0.18741  0.35448  1.0000
  Si  Si701     1.0  0.35448  0.30560  0.18741  1.0000
  Si  Si702     1.0  0.18741  0.35448  0.30560  1.0000
  Si  Si703     1.0  0.30560  0.64552  0.81259  1.0000
  Si  Si704     1.0  0.18741  0.69440  0.64552  1.0000
  Si  Si705     1.0  0.35448  0.81259  0.69440  1.0000
  Si  Si706     1.0  0.30560  0.81259  0.64553  1.0000
  Si  Si707     1.0  0.35448  0.69440  0.81259  1.0000
  Si  Si708     1.0  0.18741  0.64552  0.69440  1.0000
  Si  Si709     1.0  0.69440  0.35448  0.81259  1.0000
  Si  Si710     1.0  0.81259  0.30560  0.64553  1.0000
  Si  Si711     1.0  0.64552  0.18741  0.69440  1.0000
  Si  Si712     1.0  0.69440  0.18741  0.64552  1.0000
  Si  Si713     1.0  0.64552  0.30561  0.81259  1.0000
  Si  Si714     1.0  0.81259  0.35448  0.69440  1.0000
  Si  Si715     1.0  0.69439  0.64552  0.18741  1.0000
  Si  Si716     1.0  0.81259  0.69439  0.35448  1.0000
  Si  Si717     1.0  0.64552  0.81259  0.30560  1.0000
  Si  Si718     1.0  0.69440  0.81259  0.35448  1.0000
  Si  Si719     1.0  0.64552  0.69439  0.18741  1.0000
  Si  Si720     1.0  0.81259  0.64552  0.30560  1.0000
  Si  Si721     1.0  0.19439  0.14552  0.31259  1.0000
  Si  Si722     1.0  0.31259  0.19439  0.14552  1.0000
  Si  Si723     1.0  0.14552  0.31259  0.19440  1.0000
  Si  Si724     1.0  0.19440  0.31259  0.14552  1.0000
  Si  Si725     1.0  0.14552  0.19440  0.31259  1.0000
  Si  Si726     1.0  0.31259  0.14552  0.19440  1.0000
  Si  Si727     1.0  0.19440  0.85448  0.68741  1.0000
  Si  Si728     1.0  0.31259  0.80560  0.85448  1.0000
  Si  Si729     1.0  0.14552  0.68741  0.80560  1.0000
  Si  Si730     1.0  0.19440  0.68741  0.85447  1.0000
  Si  Si731     1.0  0.14552  0.80560  0.68741  1.0000
  Si  Si732     1.0  0.31259  0.85448  0.80560  1.0000
  Si  Si733     1.0  0.80560  0.14552  0.68741  1.0000
  Si  Si734     1.0  0.68741  0.19440  0.85447  1.0000
  Si  Si735     1.0  0.85448  0.31259  0.80560  1.0000
  Si  Si736     1.0  0.80560  0.31259  0.85448  1.0000
  Si  Si737     1.0  0.85448  0.19439  0.68741  1.0000
  Si  Si738     1.0  0.68741  0.14552  0.80561  1.0000
  Si  Si739     1.0  0.80561  0.85448  0.31259  1.0000
  Si  Si740     1.0  0.68741  0.80561  0.14552  1.0000
  Si  Si741     1.0  0.85448  0.68741  0.19440  1.0000
  Si  Si742     1.0  0.80560  0.68741  0.14552  1.0000
  Si  Si743     1.0  0.85448  0.80561  0.31259  1.0000
  Si  Si744     1.0  0.68741  0.85448  0.19440  1.0000
  Si  Si745     1.0  0.80561  0.85448  0.68741  1.0000
  Si  Si746     1.0  0.68741  0.80561  0.85448  1.0000
  Si  Si747     1.0  0.85448  0.68741  0.80560  1.0000
  Si  Si748     1.0  0.80561  0.68741  0.85448  1.0000
  Si  Si749     1.0  0.85448  0.80560  0.68741  1.0000
  Si  Si750     1.0  0.68741  0.85448  0.80560  1.0000
  Si  Si751     1.0  0.80560  0.14552  0.31259  1.0000
  Si  Si752     1.0  0.68741  0.19440  0.14552  1.0000
  Si  Si753     1.0  0.85448  0.31259  0.19440  1.0000
  Si  Si754     1.0  0.80560  0.31259  0.14552  1.0000
  Si  Si755     1.0  0.85448  0.19440  0.31259  1.0000
  Si  Si756     1.0  0.68741  0.14552  0.19440  1.0000
  Si  Si757     1.0  0.19440  0.85448  0.31259  1.0000
  Si  Si758     1.0  0.31259  0.80560  0.14553  1.0000
  Si  Si759     1.0  0.14552  0.68741  0.19440  1.0000
  Si  Si760     1.0  0.19440  0.68741  0.14552  1.0000
  Si  Si761     1.0  0.14552  0.80561  0.31259  1.0000
  Si  Si762     1.0  0.31259  0.85448  0.19440  1.0000
  Si  Si763     1.0  0.19440  0.14552  0.68741  1.0000
  Si  Si764     1.0  0.31259  0.19440  0.85448  1.0000
  Si  Si765     1.0  0.14552  0.31259  0.80560  1.0000
  Si  Si766     1.0  0.19440  0.31259  0.85448  1.0000
  Si  Si767     1.0  0.14552  0.19439  0.68741  1.0000
  Si  Si768     1.0  0.31259  0.14552  0.80560  1.0000
  Si  Si769     1.0  0.74338  0.57644  0.69452  1.0000
  Si  Si770     1.0  0.69453  0.74338  0.57644  1.0000
  Si  Si771     1.0  0.57644  0.69453  0.74339  1.0000
  Si  Si772     1.0  0.74338  0.69453  0.57644  1.0000
  Si  Si773     1.0  0.57644  0.74338  0.69453  1.0000
  Si  Si774     1.0  0.69453  0.57644  0.74338  1.0000
  Si  Si775     1.0  0.74338  0.42356  0.30547  1.0000
  Si  Si776     1.0  0.69453  0.25662  0.42356  1.0000
  Si  Si777     1.0  0.57644  0.30547  0.25662  1.0000
  Si  Si778     1.0  0.74338  0.30547  0.42356  1.0000
  Si  Si779     1.0  0.57644  0.25662  0.30547  1.0000
  Si  Si780     1.0  0.69453  0.42356  0.25662  1.0000
  Si  Si781     1.0  0.25662  0.57644  0.30547  1.0000
  Si  Si782     1.0  0.30547  0.74338  0.42356  1.0000
  Si  Si783     1.0  0.42356  0.69453  0.25662  1.0000
  Si  Si784     1.0  0.25662  0.69453  0.42356  1.0000
  Si  Si785     1.0  0.42356  0.74338  0.30547  1.0000
  Si  Si786     1.0  0.30547  0.57644  0.25662  1.0000
  Si  Si787     1.0  0.25662  0.42356  0.69453  1.0000
  Si  Si788     1.0  0.30547  0.25662  0.57644  1.0000
  Si  Si789     1.0  0.42356  0.30547  0.74338  1.0000
  Si  Si790     1.0  0.25662  0.30547  0.57644  1.0000
  Si  Si791     1.0  0.42356  0.25662  0.69453  1.0000
  Si  Si792     1.0  0.30547  0.42356  0.74338  1.0000
  Si  Si793     1.0  0.25662  0.42356  0.30548  1.0000
  Si  Si794     1.0  0.30547  0.25662  0.42356  1.0000
  Si  Si795     1.0  0.42356  0.30547  0.25661  1.0000
  Si  Si796     1.0  0.25662  0.30547  0.42356  1.0000
  Si  Si797     1.0  0.42356  0.25662  0.30547  1.0000
  Si  Si798     1.0  0.30547  0.42356  0.25662  1.0000
  Si  Si799     1.0  0.25662  0.57644  0.69453  1.0000
  Si  Si800     1.0  0.30547  0.74338  0.57644  1.0000
  Si  Si801     1.0  0.42356  0.69453  0.74338  1.0000
  Si  Si802     1.0  0.25662  0.69453  0.57644  1.0000
  Si  Si803     1.0  0.42356  0.74338  0.69453  1.0000
  Si  Si804     1.0  0.30547  0.57644  0.74338  1.0000
  Si  Si805     1.0  0.74338  0.42356  0.69453  1.0000
  Si  Si806     1.0  0.69453  0.25662  0.57644  1.0000
  Si  Si807     1.0  0.57644  0.30547  0.74338  1.0000
  Si  Si808     1.0  0.74338  0.30547  0.57644  1.0000
  Si  Si809     1.0  0.57644  0.25662  0.69453  1.0000
  Si  Si810     1.0  0.69453  0.42356  0.74338  1.0000
  Si  Si811     1.0  0.74338  0.57644  0.30547  1.0000
  Si  Si812     1.0  0.69453  0.74338  0.42356  1.0000
  Si  Si813     1.0  0.57644  0.69453  0.25662  1.0000
  Si  Si814     1.0  0.74338  0.69453  0.42356  1.0000
  Si  Si815     1.0  0.57644  0.74338  0.30547  1.0000
  Si  Si816     1.0  0.69453  0.57644  0.25662  1.0000
  Si  Si817     1.0  0.24338  0.07644  0.19453  1.0000
  Si  Si818     1.0  0.19453  0.24338  0.07644  1.0000
  Si  Si819     1.0  0.07644  0.19453  0.24339  1.0000
  Si  Si820     1.0  0.24338  0.19453  0.07644  1.0000
  Si  Si821     1.0  0.07644  0.24338  0.19453  1.0000
  Si  Si822     1.0  0.19453  0.07644  0.24338  1.0000
  Si  Si823     1.0  0.24338  0.92356  0.80547  1.0000
  Si  Si824     1.0  0.19453  0.75662  0.92356  1.0000
  Si  Si825     1.0  0.07644  0.80547  0.75662  1.0000
  Si  Si826     1.0  0.24338  0.80547  0.92356  1.0000
  Si  Si827     1.0  0.07644  0.75662  0.80547  1.0000
  Si  Si828     1.0  0.19452  0.92356  0.75662  1.0000
  Si  Si829     1.0  0.75662  0.07644  0.80547  1.0000
  Si  Si830     1.0  0.80547  0.24338  0.92356  1.0000
  Si  Si831     1.0  0.92356  0.19453  0.75662  1.0000
  Si  Si832     1.0  0.75662  0.19453  0.92356  1.0000
  Si  Si833     1.0  0.92355  0.24338  0.80547  1.0000
  Si  Si834     1.0  0.80547  0.07644  0.75662  1.0000
  Si  Si835     1.0  0.75662  0.92356  0.19453  1.0000
  Si  Si836     1.0  0.80547  0.75662  0.07644  1.0000
  Si  Si837     1.0  0.92356  0.80547  0.24338  1.0000
  Si  Si838     1.0  0.75662  0.80547  0.07644  1.0000
  Si  Si839     1.0  0.92356  0.75662  0.19453  1.0000
  Si  Si840     1.0  0.80547  0.92356  0.24338  1.0000
  Si  Si841     1.0  0.75662  0.92356  0.80547  1.0000
  Si  Si842     1.0  0.80547  0.75662  0.92356  1.0000
  Si  Si843     1.0  0.92356  0.80547  0.75661  1.0000
  Si  Si844     1.0  0.75662  0.80547  0.92356  1.0000
  Si  Si845     1.0  0.92356  0.75662  0.80547  1.0000
  Si  Si846     1.0  0.80547  0.92356  0.75662  1.0000
  Si  Si847     1.0  0.75662  0.07644  0.19453  1.0000
  Si  Si848     1.0  0.80547  0.24338  0.07644  1.0000
  Si  Si849     1.0  0.92356  0.19453  0.24338  1.0000
  Si  Si850     1.0  0.75662  0.19453  0.07644  1.0000
  Si  Si851     1.0  0.92356  0.24338  0.19453  1.0000
  Si  Si852     1.0  0.80548  0.07644  0.24338  1.0000
  Si  Si853     1.0  0.24338  0.92356  0.19453  1.0000
  Si  Si854     1.0  0.19453  0.75662  0.07644  1.0000
  Si  Si855     1.0  0.07644  0.80547  0.24338  1.0000
  Si  Si856     1.0  0.24338  0.80547  0.07644  1.0000
  Si  Si857     1.0  0.07644  0.75662  0.19453  1.0000
  Si  Si858     1.0  0.19453  0.92356  0.24338  1.0000
  Si  Si859     1.0  0.24338  0.07644  0.80547  1.0000
  Si  Si860     1.0  0.19453  0.24338  0.92356  1.0000
  Si  Si861     1.0  0.07644  0.19453  0.75662  1.0000
  Si  Si862     1.0  0.24338  0.19453  0.92356  1.0000
  Si  Si863     1.0  0.07644  0.24338  0.80547  1.0000
  Si  Si864     1.0  0.19453  0.07644  0.75662  1.0000
  Si  Si865     1.0  0.69444  0.64548  0.74343  1.0000
  Si  Si866     1.0  0.74344  0.69445  0.64548  1.0000
  Si  Si867     1.0  0.64547  0.74343  0.69444  1.0000
  Si  Si868     1.0  0.69445  0.74343  0.64548  1.0000
  Si  Si869     1.0  0.64547  0.69444  0.74343  1.0000
  Si  Si870     1.0  0.74344  0.64548  0.69445  1.0000
  Si  Si871     1.0  0.69444  0.35452  0.25656  1.0000
  Si  Si872     1.0  0.74344  0.30555  0.35453  1.0000
  Si  Si873     1.0  0.64548  0.25657  0.30556  1.0000
  Si  Si874     1.0  0.69445  0.25657  0.35452  1.0000
  Si  Si875     1.0  0.64547  0.30556  0.25656  1.0000
  Si  Si876     1.0  0.74343  0.35452  0.30556  1.0000
  Si  Si877     1.0  0.30555  0.64548  0.25656  1.0000
  Si  Si878     1.0  0.25657  0.69444  0.35452  1.0000
  Si  Si879     1.0  0.35452  0.74343  0.30555  1.0000
  Si  Si880     1.0  0.30556  0.74344  0.35453  1.0000
  Si  Si881     1.0  0.35452  0.69445  0.25656  1.0000
  Si  Si882     1.0  0.25657  0.64548  0.30556  1.0000
  Si  Si883     1.0  0.30556  0.35452  0.74343  1.0000
  Si  Si884     1.0  0.25657  0.30555  0.64548  1.0000
  Si  Si885     1.0  0.35452  0.25657  0.69445  1.0000
  Si  Si886     1.0  0.30555  0.25657  0.64548  1.0000
  Si  Si887     1.0  0.35452  0.30556  0.74343  1.0000
  Si  Si888     1.0  0.25657  0.35452  0.69444  1.0000
  Si  Si889     1.0  0.30556  0.35452  0.25657  1.0000
  Si  Si890     1.0  0.25656  0.30555  0.35452  1.0000
  Si  Si891     1.0  0.35453  0.25657  0.30556  1.0000
  Si  Si892     1.0  0.30555  0.25657  0.35452  1.0000
  Si  Si893     1.0  0.35453  0.30556  0.25657  1.0000
  Si  Si894     1.0  0.25656  0.35452  0.30555  1.0000
  Si  Si895     1.0  0.30556  0.64548  0.74344  1.0000
  Si  Si896     1.0  0.25656  0.69445  0.64547  1.0000
  Si  Si897     1.0  0.35452  0.74343  0.69444  1.0000
  Si  Si898     1.0  0.30555  0.74343  0.64548  1.0000
  Si  Si899     1.0  0.35453  0.69444  0.74344  1.0000
  Si  Si900     1.0  0.25657  0.64548  0.69444  1.0000
  Si  Si901     1.0  0.69445  0.35452  0.74344  1.0000
  Si  Si902     1.0  0.74343  0.30556  0.64548  1.0000
  Si  Si903     1.0  0.64548  0.25657  0.69445  1.0000
  Si  Si904     1.0  0.69444  0.25656  0.64547  1.0000
  Si  Si905     1.0  0.64548  0.30555  0.74344  1.0000
  Si  Si906     1.0  0.74343  0.35452  0.69444  1.0000
  Si  Si907     1.0  0.69444  0.64548  0.25657  1.0000
  Si  Si908     1.0  0.74343  0.69445  0.35452  1.0000
  Si  Si909     1.0  0.64548  0.74343  0.30555  1.0000
  Si  Si910     1.0  0.69445  0.74343  0.35452  1.0000
  Si  Si911     1.0  0.64548  0.69444  0.25657  1.0000
  Si  Si912     1.0  0.74343  0.64548  0.30556  1.0000
  Si  Si913     1.0  0.19444  0.14548  0.24343  1.0000
  Si  Si914     1.0  0.24344  0.19445  0.14548  1.0000
  Si  Si915     1.0  0.14547  0.24343  0.19444  1.0000
  Si  Si916     1.0  0.19445  0.24343  0.14548  1.0000
  Si  Si917     1.0  0.14547  0.19444  0.24343  1.0000
  Si  Si918     1.0  0.24344  0.14548  0.19445  1.0000
  Si  Si919     1.0  0.19444  0.85452  0.75656  1.0000
  Si  Si920     1.0  0.24344  0.80555  0.85453  1.0000
  Si  Si921     1.0  0.14548  0.75657  0.80556  1.0000
  Si  Si922     1.0  0.19445  0.75657  0.85452  1.0000
  Si  Si923     1.0  0.14547  0.80556  0.75656  1.0000
  Si  Si924     1.0  0.24343  0.85452  0.80556  1.0000
  Si  Si925     1.0  0.80555  0.14548  0.75656  1.0000
  Si  Si926     1.0  0.75657  0.19444  0.85452  1.0000
  Si  Si927     1.0  0.85452  0.24343  0.80555  1.0000
  Si  Si928     1.0  0.80555  0.24344  0.85453  1.0000
  Si  Si929     1.0  0.85452  0.19444  0.75656  1.0000
  Si  Si930     1.0  0.75657  0.14548  0.80556  1.0000
  Si  Si931     1.0  0.80556  0.85452  0.24343  1.0000
  Si  Si932     1.0  0.75657  0.80556  0.14548  1.0000
  Si  Si933     1.0  0.85452  0.75657  0.19445  1.0000
  Si  Si934     1.0  0.80555  0.75657  0.14548  1.0000
  Si  Si935     1.0  0.85452  0.80556  0.24343  1.0000
  Si  Si936     1.0  0.75657  0.85452  0.19444  1.0000
  Si  Si937     1.0  0.80556  0.85452  0.75657  1.0000
  Si  Si938     1.0  0.75656  0.80555  0.85452  1.0000
  Si  Si939     1.0  0.85453  0.75657  0.80556  1.0000
  Si  Si940     1.0  0.80555  0.75657  0.85452  1.0000
  Si  Si941     1.0  0.85453  0.80556  0.75657  1.0000
  Si  Si942     1.0  0.75656  0.85452  0.80555  1.0000
  Si  Si943     1.0  0.80556  0.14548  0.24344  1.0000
  Si  Si944     1.0  0.75656  0.19445  0.14547  1.0000
  Si  Si945     1.0  0.85452  0.24343  0.19444  1.0000
  Si  Si946     1.0  0.80555  0.24343  0.14548  1.0000
  Si  Si947     1.0  0.85453  0.19444  0.24344  1.0000
  Si  Si948     1.0  0.75657  0.14548  0.19444  1.0000
  Si  Si949     1.0  0.19445  0.85452  0.24344  1.0000
  Si  Si950     1.0  0.24343  0.80556  0.14548  1.0000
  Si  Si951     1.0  0.14548  0.75657  0.19445  1.0000
  Si  Si952     1.0  0.19444  0.75656  0.14547  1.0000
  Si  Si953     1.0  0.14548  0.80556  0.24344  1.0000
  Si  Si954     1.0  0.24343  0.85452  0.19444  1.0000
  Si  Si955     1.0  0.19444  0.14548  0.75657  1.0000
  Si  Si956     1.0  0.24343  0.19445  0.85452  1.0000
  Si  Si957     1.0  0.14548  0.24343  0.80555  1.0000
  Si  Si958     1.0  0.19445  0.24343  0.85452  1.0000
  Si  Si959     1.0  0.14548  0.19444  0.75657  1.0000
  Si  Si960     1.0  0.24343  0.14548  0.80556  1.0000
  Si  Si961     1.0  0.69461  0.81279  0.57614  1.0000
  Si  Si962     1.0  0.57614  0.69462  0.81280  1.0000
  Si  Si963     1.0  0.81280  0.57613  0.69461  1.0000
  Si  Si964     1.0  0.69461  0.57614  0.81279  1.0000
  Si  Si965     1.0  0.81280  0.69461  0.57614  1.0000
  Si  Si966     1.0  0.57614  0.81280  0.69461  1.0000
  Si  Si967     1.0  0.69461  0.18720  0.42386  1.0000
  Si  Si968     1.0  0.57613  0.30539  0.18720  1.0000
  Si  Si969     1.0  0.81279  0.42386  0.30539  1.0000
  Si  Si970     1.0  0.69461  0.42387  0.18721  1.0000
  Si  Si971     1.0  0.81280  0.30538  0.42387  1.0000
  Si  Si972     1.0  0.57614  0.18720  0.30539  1.0000
  Si  Si973     1.0  0.30539  0.81280  0.42386  1.0000
  Si  Si974     1.0  0.42387  0.69461  0.18721  1.0000
  Si  Si975     1.0  0.18721  0.57614  0.30539  1.0000
  Si  Si976     1.0  0.30539  0.57613  0.18720  1.0000
  Si  Si977     1.0  0.18720  0.69462  0.42386  1.0000
  Si  Si978     1.0  0.42386  0.81279  0.30539  1.0000
  Si  Si979     1.0  0.30539  0.18720  0.57614  1.0000
  Si  Si980     1.0  0.42386  0.30539  0.81280  1.0000
  Si  Si981     1.0  0.18721  0.42386  0.69461  1.0000
  Si  Si982     1.0  0.30539  0.42386  0.81280  1.0000
  Si  Si983     1.0  0.18721  0.30539  0.57614  1.0000
  Si  Si984     1.0  0.42386  0.18721  0.69461  1.0000
  Si  Si985     1.0  0.30539  0.18721  0.42386  1.0000
  Si  Si986     1.0  0.42386  0.30538  0.18720  1.0000
  Si  Si987     1.0  0.18720  0.42387  0.30539  1.0000
  Si  Si988     1.0  0.30539  0.42386  0.18721  1.0000
  Si  Si989     1.0  0.18720  0.30539  0.42386  1.0000
  Si  Si990     1.0  0.42386  0.18720  0.30538  1.0000
  Si  Si991     1.0  0.30539  0.81280  0.57614  1.0000
  Si  Si992     1.0  0.42387  0.69461  0.81280  1.0000
  Si  Si993     1.0  0.18721  0.57614  0.69461  1.0000
  Si  Si994     1.0  0.30539  0.57613  0.81279  1.0000
  Si  Si995     1.0  0.18720  0.69462  0.57613  1.0000
  Si  Si996     1.0  0.42386  0.81280  0.69461  1.0000
  Si  Si997     1.0  0.69462  0.18720  0.57614  1.0000
  Si  Si998     1.0  0.57614  0.30539  0.81279  1.0000
  Si  Si999     1.0  0.81279  0.42386  0.69461  1.0000
  Si  Si1000    1.0  0.69461  0.42387  0.81280  1.0000
  Si  Si1001    1.0  0.81280  0.30538  0.57614  1.0000
  Si  Si1002    1.0  0.57614  0.18721  0.69461  1.0000
  Si  Si1003    1.0  0.69461  0.81280  0.42386  1.0000
  Si  Si1004    1.0  0.57614  0.69461  0.18720  1.0000
  Si  Si1005    1.0  0.81279  0.57614  0.30539  1.0000
  Si  Si1006    1.0  0.69461  0.57614  0.18720  1.0000
  Si  Si1007    1.0  0.81279  0.69461  0.42386  1.0000
  Si  Si1008    1.0  0.57614  0.81279  0.30539  1.0000
  Si  Si1009    1.0  0.19461  0.31279  0.07614  1.0000
  Si  Si1010    1.0  0.07614  0.19462  0.31280  1.0000
  Si  Si1011    1.0  0.31280  0.07613  0.19461  1.0000
  Si  Si1012    1.0  0.19461  0.07614  0.31279  1.0000
  Si  Si1013    1.0  0.31280  0.19461  0.07614  1.0000
  Si  Si1014    1.0  0.07614  0.31280  0.19462  1.0000
  Si  Si1015    1.0  0.19461  0.68720  0.92386  1.0000
  Si  Si1016    1.0  0.07613  0.80539  0.68720  1.0000
  Si  Si1017    1.0  0.31279  0.92386  0.80539  1.0000
  Si  Si1018    1.0  0.19461  0.92387  0.68721  1.0000
  Si  Si1019    1.0  0.31280  0.80539  0.92387  1.0000
  Si  Si1020    1.0  0.07614  0.68720  0.80539  1.0000
  Si  Si1021    1.0  0.80539  0.31280  0.92386  1.0000
  Si  Si1022    1.0  0.92387  0.19461  0.68721  1.0000
  Si  Si1023    1.0  0.68721  0.07614  0.80539  1.0000
  Si  Si1024    1.0  0.80539  0.07613  0.68720  1.0000
  Si  Si1025    1.0  0.68720  0.19462  0.92386  1.0000
  Si  Si1026    1.0  0.92386  0.31279  0.80539  1.0000
  Si  Si1027    1.0  0.80539  0.68720  0.07614  1.0000
  Si  Si1028    1.0  0.92386  0.80539  0.31280  1.0000
  Si  Si1029    1.0  0.68721  0.92386  0.19461  1.0000
  Si  Si1030    1.0  0.80539  0.92386  0.31280  1.0000
  Si  Si1031    1.0  0.68721  0.80539  0.07614  1.0000
  Si  Si1032    1.0  0.92386  0.68721  0.19461  1.0000
  Si  Si1033    1.0  0.80539  0.68721  0.92386  1.0000
  Si  Si1034    1.0  0.92386  0.80538  0.68720  1.0000
  Si  Si1035    1.0  0.68720  0.92387  0.80539  1.0000
  Si  Si1036    1.0  0.80539  0.92386  0.68721  1.0000
  Si  Si1037    1.0  0.68720  0.80539  0.92386  1.0000
  Si  Si1038    1.0  0.92386  0.68720  0.80538  1.0000
  Si  Si1039    1.0  0.80539  0.31280  0.07614  1.0000
  Si  Si1040    1.0  0.92387  0.19461  0.31280  1.0000
  Si  Si1041    1.0  0.68721  0.07614  0.19461  1.0000
  Si  Si1042    1.0  0.80539  0.07614  0.31279  1.0000
  Si  Si1043    1.0  0.68720  0.19461  0.07613  1.0000
  Si  Si1044    1.0  0.92386  0.31280  0.19461  1.0000
  Si  Si1045    1.0  0.19461  0.68720  0.07614  1.0000
  Si  Si1046    1.0  0.07613  0.80539  0.31279  1.0000
  Si  Si1047    1.0  0.31279  0.92386  0.19461  1.0000
  Si  Si1048    1.0  0.19461  0.92387  0.31280  1.0000
  Si  Si1049    1.0  0.31280  0.80538  0.07614  1.0000
  Si  Si1050    1.0  0.07614  0.68721  0.19461  1.0000
  Si  Si1051    1.0  0.19461  0.31280  0.92386  1.0000
  Si  Si1052    1.0  0.07614  0.19461  0.68720  1.0000
  Si  Si1053    1.0  0.31279  0.07614  0.80539  1.0000
  Si  Si1054    1.0  0.19461  0.07614  0.68720  1.0000
  Si  Si1055    1.0  0.31279  0.19461  0.92386  1.0000
  Si  Si1056    1.0  0.07614  0.31279  0.80539  1.0000
  Si  Si1057    1.0  0.96547  0.69413  0.64528  1.0000
  Si  Si1058    1.0  0.64528  0.96547  0.69413  1.0000
  Si  Si1059    1.0  0.69413  0.64528  0.96546  1.0000
  Si  Si1060    1.0  0.96547  0.64527  0.69413  1.0000
  Si  Si1061    1.0  0.69413  0.96547  0.64528  1.0000
  Si  Si1062    1.0  0.64527  0.69412  0.96547  1.0000
  Si  Si1063    1.0  0.96547  0.30587  0.35473  1.0000
  Si  Si1064    1.0  0.64527  0.03453  0.30587  1.0000
  Si  Si1065    1.0  0.69413  0.35472  0.03453  1.0000
  Si  Si1066    1.0  0.96547  0.35473  0.30587  1.0000
  Si  Si1067    1.0  0.69413  0.03453  0.35472  1.0000
  Si  Si1068    1.0  0.64527  0.30587  0.03453  1.0000
  Si  Si1069    1.0  0.03453  0.69413  0.35472  1.0000
  Si  Si1070    1.0  0.35472  0.96547  0.30587  1.0000
  Si  Si1071    1.0  0.30587  0.64528  0.03453  1.0000
  Si  Si1072    1.0  0.03454  0.64528  0.30587  1.0000
  Si  Si1073    1.0  0.30587  0.96547  0.35473  1.0000
  Si  Si1074    1.0  0.35472  0.69413  0.03453  1.0000
  Si  Si1075    1.0  0.03453  0.30587  0.64528  1.0000
  Si  Si1076    1.0  0.35472  0.03453  0.69413  1.0000
  Si  Si1077    1.0  0.30588  0.35472  0.96546  1.0000
  Si  Si1078    1.0  0.03453  0.35472  0.69413  1.0000
  Si  Si1079    1.0  0.30587  0.03453  0.64528  1.0000
  Si  Si1080    1.0  0.35472  0.30587  0.96546  1.0000
  Si  Si1081    1.0  0.03453  0.30587  0.35472  1.0000
  Si  Si1082    1.0  0.35473  0.03453  0.30587  1.0000
  Si  Si1083    1.0  0.30587  0.35473  0.03454  1.0000
  Si  Si1084    1.0  0.03453  0.35473  0.30587  1.0000
  Si  Si1085    1.0  0.30587  0.03453  0.35472  1.0000
  Si  Si1086    1.0  0.35473  0.30588  0.03453  1.0000
  Si  Si1087    1.0  0.03453  0.69413  0.64527  1.0000
  Si  Si1088    1.0  0.35473  0.96547  0.69413  1.0000
  Si  Si1089    1.0  0.30587  0.64528  0.96547  1.0000
  Si  Si1090    1.0  0.03453  0.64527  0.69413  1.0000
  Si  Si1091    1.0  0.30587  0.96547  0.64528  1.0000
  Si  Si1092    1.0  0.35473  0.69413  0.96547  1.0000
  Si  Si1093    1.0  0.96547  0.30587  0.64528  1.0000
  Si  Si1094    1.0  0.64528  0.03453  0.69413  1.0000
  Si  Si1095    1.0  0.69413  0.35472  0.96547  1.0000
  Si  Si1096    1.0  0.96546  0.35472  0.69413  1.0000
  Si  Si1097    1.0  0.69413  0.03453  0.64527  1.0000
  Si  Si1098    1.0  0.64528  0.30587  0.96547  1.0000
  Si  Si1099    1.0  0.96547  0.69413  0.35472  1.0000
  Si  Si1100    1.0  0.64528  0.96547  0.30587  1.0000
  Si  Si1101    1.0  0.69412  0.64528  0.03454  1.0000
  Si  Si1102    1.0  0.96547  0.64528  0.30587  1.0000
  Si  Si1103    1.0  0.69413  0.96547  0.35472  1.0000
  Si  Si1104    1.0  0.64528  0.69413  0.03454  1.0000
  Si  Si1105    1.0  0.46547  0.19413  0.14528  1.0000
  Si  Si1106    1.0  0.14527  0.46547  0.19413  1.0000
  Si  Si1107    1.0  0.19413  0.14527  0.46546  1.0000
  Si  Si1108    1.0  0.46547  0.14527  0.19413  1.0000
  Si  Si1109    1.0  0.19413  0.46547  0.14528  1.0000
  Si  Si1110    1.0  0.14527  0.19412  0.46547  1.0000
  Si  Si1111    1.0  0.46547  0.80587  0.85473  1.0000
  Si  Si1112    1.0  0.14527  0.53453  0.80587  1.0000
  Si  Si1113    1.0  0.19413  0.85472  0.53453  1.0000
  Si  Si1114    1.0  0.46547  0.85473  0.80587  1.0000
  Si  Si1115    1.0  0.19413  0.53453  0.85472  1.0000
  Si  Si1116    1.0  0.14527  0.80587  0.53453  1.0000
  Si  Si1117    1.0  0.53453  0.19413  0.85472  1.0000
  Si  Si1118    1.0  0.85472  0.46547  0.80587  1.0000
  Si  Si1119    1.0  0.80587  0.14527  0.53453  1.0000
  Si  Si1120    1.0  0.53454  0.14528  0.80587  1.0000
  Si  Si1121    1.0  0.80587  0.46547  0.85473  1.0000
  Si  Si1122    1.0  0.85472  0.19413  0.53453  1.0000
  Si  Si1123    1.0  0.53453  0.80587  0.14528  1.0000
  Si  Si1124    1.0  0.85472  0.53453  0.19413  1.0000
  Si  Si1125    1.0  0.80588  0.85472  0.46546  1.0000
  Si  Si1126    1.0  0.53453  0.85472  0.19413  1.0000
  Si  Si1127    1.0  0.80587  0.53453  0.14528  1.0000
  Si  Si1128    1.0  0.85472  0.80587  0.46546  1.0000
  Si  Si1129    1.0  0.53453  0.80587  0.85472  1.0000
  Si  Si1130    1.0  0.85473  0.53453  0.80587  1.0000
  Si  Si1131    1.0  0.80587  0.85472  0.53454  1.0000
  Si  Si1132    1.0  0.53453  0.85473  0.80587  1.0000
  Si  Si1133    1.0  0.80587  0.53453  0.85472  1.0000
  Si  Si1134    1.0  0.85473  0.80588  0.53453  1.0000
  Si  Si1135    1.0  0.53453  0.19413  0.14527  1.0000
  Si  Si1136    1.0  0.85473  0.46547  0.19413  1.0000
  Si  Si1137    1.0  0.80587  0.14528  0.46547  1.0000
  Si  Si1138    1.0  0.53453  0.14527  0.19413  1.0000
  Si  Si1139    1.0  0.80587  0.46547  0.14528  1.0000
  Si  Si1140    1.0  0.85473  0.19413  0.46547  1.0000
  Si  Si1141    1.0  0.46547  0.80587  0.14528  1.0000
  Si  Si1142    1.0  0.14528  0.53453  0.19413  1.0000
  Si  Si1143    1.0  0.19413  0.85472  0.46547  1.0000
  Si  Si1144    1.0  0.46546  0.85472  0.19413  1.0000
  Si  Si1145    1.0  0.19413  0.53453  0.14527  1.0000
  Si  Si1146    1.0  0.14528  0.80587  0.46547  1.0000
  Si  Si1147    1.0  0.46547  0.19413  0.85472  1.0000
  Si  Si1148    1.0  0.14528  0.46547  0.80587  1.0000
  Si  Si1149    1.0  0.19412  0.14528  0.53454  1.0000
  Si  Si1150    1.0  0.46547  0.14528  0.80587  1.0000
  Si  Si1151    1.0  0.19413  0.46547  0.85472  1.0000
  Si  Si1152    1.0  0.14528  0.19413  0.53454  1.0000
  Si  Si1153    1.0  0.92406  0.80561  0.53466  1.0000
  Si  Si1154    1.0  0.53466  0.92407  0.80561  1.0000
  Si  Si1155    1.0  0.80561  0.53466  0.92407  1.0000
  Si  Si1156    1.0  0.92406  0.53466  0.80561  1.0000
  Si  Si1157    1.0  0.80561  0.92407  0.53466  1.0000
  Si  Si1158    1.0  0.53466  0.80561  0.92407  1.0000
  Si  Si1159    1.0  0.92407  0.19439  0.46534  1.0000
  Si  Si1160    1.0  0.53466  0.07593  0.19439  1.0000
  Si  Si1161    1.0  0.80561  0.46534  0.07594  1.0000
  Si  Si1162    1.0  0.92406  0.46534  0.19439  1.0000
  Si  Si1163    1.0  0.80561  0.07593  0.46534  1.0000
  Si  Si1164    1.0  0.53466  0.19439  0.07593  1.0000
  Si  Si1165    1.0  0.07593  0.80561  0.46534  1.0000
  Si  Si1166    1.0  0.46534  0.92406  0.19439  1.0000
  Si  Si1167    1.0  0.19439  0.53466  0.07594  1.0000
  Si  Si1168    1.0  0.07594  0.53466  0.19439  1.0000
  Si  Si1169    1.0  0.19439  0.92407  0.46534  1.0000
  Si  Si1170    1.0  0.46534  0.80561  0.07594  1.0000
  Si  Si1171    1.0  0.07593  0.19440  0.53466  1.0000
  Si  Si1172    1.0  0.46534  0.07594  0.80561  1.0000
  Si  Si1173    1.0  0.19439  0.46534  0.92406  1.0000
  Si  Si1174    1.0  0.07593  0.46534  0.80561  1.0000
  Si  Si1175    1.0  0.19440  0.07593  0.53466  1.0000
  Si  Si1176    1.0  0.46534  0.19440  0.92406  1.0000
  Si  Si1177    1.0  0.07594  0.19439  0.46534  1.0000
  Si  Si1178    1.0  0.46534  0.07593  0.19439  1.0000
  Si  Si1179    1.0  0.19439  0.46534  0.07593  1.0000
  Si  Si1180    1.0  0.07594  0.46534  0.19439  1.0000
  Si  Si1181    1.0  0.19439  0.07593  0.46534  1.0000
  Si  Si1182    1.0  0.46534  0.19439  0.07593  1.0000
  Si  Si1183    1.0  0.07593  0.80561  0.53466  1.0000
  Si  Si1184    1.0  0.46534  0.92407  0.80561  1.0000
  Si  Si1185    1.0  0.19439  0.53466  0.92406  1.0000
  Si  Si1186    1.0  0.07594  0.53466  0.80561  1.0000
  Si  Si1187    1.0  0.19439  0.92407  0.53466  1.0000
  Si  Si1188    1.0  0.46534  0.80561  0.92407  1.0000
  Si  Si1189    1.0  0.92407  0.19439  0.53466  1.0000
  Si  Si1190    1.0  0.53466  0.07594  0.80561  1.0000
  Si  Si1191    1.0  0.80561  0.46534  0.92406  1.0000
  Si  Si1192    1.0  0.92406  0.46534  0.80561  1.0000
  Si  Si1193    1.0  0.80561  0.07593  0.53466  1.0000
  Si  Si1194    1.0  0.53466  0.19439  0.92406  1.0000
  Si  Si1195    1.0  0.92407  0.80560  0.46534  1.0000
  Si  Si1196    1.0  0.53466  0.92406  0.19439  1.0000
  Si  Si1197    1.0  0.80560  0.53466  0.07594  1.0000
  Si  Si1198    1.0  0.92407  0.53466  0.19439  1.0000
  Si  Si1199    1.0  0.80560  0.92407  0.46534  1.0000
  Si  Si1200    1.0  0.53466  0.80560  0.07594  1.0000
  Si  Si1201    1.0  0.42406  0.30561  0.03466  1.0000
  Si  Si1202    1.0  0.03466  0.42407  0.30561  1.0000
  Si  Si1203    1.0  0.30561  0.03466  0.42407  1.0000
  Si  Si1204    1.0  0.42406  0.03466  0.30561  1.0000
  Si  Si1205    1.0  0.30561  0.42407  0.03466  1.0000
  Si  Si1206    1.0  0.03466  0.30561  0.42407  1.0000
  Si  Si1207    1.0  0.42407  0.69439  0.96534  1.0000
  Si  Si1208    1.0  0.03466  0.57593  0.69439  1.0000
  Si  Si1209    1.0  0.30561  0.96534  0.57594  1.0000
  Si  Si1210    1.0  0.42406  0.96534  0.69439  1.0000
  Si  Si1211    1.0  0.30561  0.57593  0.96534  1.0000
  Si  Si1212    1.0  0.03466  0.69439  0.57593  1.0000
  Si  Si1213    1.0  0.57593  0.30561  0.96534  1.0000
  Si  Si1214    1.0  0.96534  0.42406  0.69439  1.0000
  Si  Si1215    1.0  0.69439  0.03466  0.57594  1.0000
  Si  Si1216    1.0  0.57594  0.03466  0.69439  1.0000
  Si  Si1217    1.0  0.69439  0.42407  0.96534  1.0000
  Si  Si1218    1.0  0.96534  0.30561  0.57594  1.0000
  Si  Si1219    1.0  0.57593  0.69440  0.03466  1.0000
  Si  Si1220    1.0  0.96534  0.57594  0.30561  1.0000
  Si  Si1221    1.0  0.69440  0.96534  0.42406  1.0000
  Si  Si1222    1.0  0.57593  0.96534  0.30561  1.0000
  Si  Si1223    1.0  0.69440  0.57593  0.03466  1.0000
  Si  Si1224    1.0  0.96534  0.69440  0.42406  1.0000
  Si  Si1225    1.0  0.57594  0.69439  0.96534  1.0000
  Si  Si1226    1.0  0.96534  0.57593  0.69439  1.0000
  Si  Si1227    1.0  0.69439  0.96534  0.57594  1.0000
  Si  Si1228    1.0  0.57594  0.96534  0.69439  1.0000
  Si  Si1229    1.0  0.69439  0.57593  0.96534  1.0000
  Si  Si1230    1.0  0.96534  0.69439  0.57593  1.0000
  Si  Si1231    1.0  0.57593  0.30561  0.03466  1.0000
  Si  Si1232    1.0  0.96534  0.42407  0.30561  1.0000
  Si  Si1233    1.0  0.69439  0.03466  0.42406  1.0000
  Si  Si1234    1.0  0.57594  0.03466  0.30561  1.0000
  Si  Si1235    1.0  0.69439  0.42407  0.03466  1.0000
  Si  Si1236    1.0  0.96534  0.30561  0.42407  1.0000
  Si  Si1237    1.0  0.42407  0.69439  0.03466  1.0000
  Si  Si1238    1.0  0.03466  0.57594  0.30561  1.0000
  Si  Si1239    1.0  0.30561  0.96534  0.42406  1.0000
  Si  Si1240    1.0  0.42406  0.96534  0.30561  1.0000
  Si  Si1241    1.0  0.30561  0.57593  0.03466  1.0000
  Si  Si1242    1.0  0.03466  0.69439  0.42406  1.0000
  Si  Si1243    1.0  0.42407  0.30560  0.96534  1.0000
  Si  Si1244    1.0  0.03466  0.42406  0.69439  1.0000
  Si  Si1245    1.0  0.30561  0.03466  0.57594  1.0000
  Si  Si1246    1.0  0.42407  0.03466  0.69439  1.0000
  Si  Si1247    1.0  0.30560  0.42407  0.96534  1.0000
  Si  Si1248    1.0  0.03466  0.30560  0.57594  1.0000
  Si  Si1249    1.0  0.92366  0.35421  0.74964  1.0000
  Si  Si1250    1.0  0.74964  0.92366  0.35421  1.0000
  Si  Si1251    1.0  0.35421  0.74964  0.92366  1.0000
  Si  Si1252    1.0  0.92366  0.74964  0.35421  1.0000
  Si  Si1253    1.0  0.35421  0.92366  0.74965  1.0000
  Si  Si1254    1.0  0.74964  0.35421  0.92366  1.0000
  Si  Si1255    1.0  0.92366  0.64579  0.25036  1.0000
  Si  Si1256    1.0  0.74965  0.07634  0.64579  1.0000
  Si  Si1257    1.0  0.35421  0.25036  0.07634  1.0000
  Si  Si1258    1.0  0.92366  0.25036  0.64579  1.0000
  Si  Si1259    1.0  0.35421  0.07634  0.25036  1.0000
  Si  Si1260    1.0  0.74964  0.64579  0.07634  1.0000
  Si  Si1261    1.0  0.07634  0.35421  0.25036  1.0000
  Si  Si1262    1.0  0.25035  0.92366  0.64579  1.0000
  Si  Si1263    1.0  0.64579  0.74964  0.07634  1.0000
  Si  Si1264    1.0  0.07634  0.74965  0.64579  1.0000
  Si  Si1265    1.0  0.64579  0.92366  0.25036  1.0000
  Si  Si1266    1.0  0.25036  0.35421  0.07634  1.0000
  Si  Si1267    1.0  0.07634  0.64579  0.74964  1.0000
  Si  Si1268    1.0  0.25036  0.07634  0.35421  1.0000
  Si  Si1269    1.0  0.64579  0.25036  0.92366  1.0000
  Si  Si1270    1.0  0.07634  0.25036  0.35421  1.0000
  Si  Si1271    1.0  0.64579  0.07634  0.74964  1.0000
  Si  Si1272    1.0  0.25036  0.64579  0.92366  1.0000
  Si  Si1273    1.0  0.07634  0.64579  0.25036  1.0000
  Si  Si1274    1.0  0.25036  0.07634  0.64579  1.0000
  Si  Si1275    1.0  0.64579  0.25036  0.07634  1.0000
  Si  Si1276    1.0  0.07634  0.25036  0.64579  1.0000
  Si  Si1277    1.0  0.64579  0.07634  0.25035  1.0000
  Si  Si1278    1.0  0.25036  0.64579  0.07634  1.0000
  Si  Si1279    1.0  0.07634  0.35421  0.74964  1.0000
  Si  Si1280    1.0  0.25035  0.92366  0.35421  1.0000
  Si  Si1281    1.0  0.64579  0.74964  0.92366  1.0000
  Si  Si1282    1.0  0.07634  0.74964  0.35421  1.0000
  Si  Si1283    1.0  0.64579  0.92366  0.74964  1.0000
  Si  Si1284    1.0  0.25036  0.35421  0.92366  1.0000
  Si  Si1285    1.0  0.92366  0.64579  0.74964  1.0000
  Si  Si1286    1.0  0.74965  0.07634  0.35421  1.0000
  Si  Si1287    1.0  0.35421  0.25036  0.92366  1.0000
  Si  Si1288    1.0  0.92366  0.25035  0.35421  1.0000
  Si  Si1289    1.0  0.35421  0.07634  0.74964  1.0000
  Si  Si1290    1.0  0.74964  0.64579  0.92366  1.0000
  Si  Si1291    1.0  0.92366  0.35421  0.25036  1.0000
  Si  Si1292    1.0  0.74964  0.92366  0.64579  1.0000
  Si  Si1293    1.0  0.35421  0.74964  0.07634  1.0000
  Si  Si1294    1.0  0.92366  0.74964  0.64579  1.0000
  Si  Si1295    1.0  0.35421  0.92366  0.25036  1.0000
  Si  Si1296    1.0  0.74964  0.35421  0.07634  1.0000
  Si  Si1297    1.0  0.42366  0.85421  0.24964  1.0000
  Si  Si1298    1.0  0.24964  0.42366  0.85421  1.0000
  Si  Si1299    1.0  0.85421  0.24964  0.42366  1.0000
  Si  Si1300    1.0  0.42366  0.24964  0.85421  1.0000
  Si  Si1301    1.0  0.85421  0.42366  0.24965  1.0000
  Si  Si1302    1.0  0.24964  0.85421  0.42366  1.0000
  Si  Si1303    1.0  0.42366  0.14579  0.75036  1.0000
  Si  Si1304    1.0  0.24965  0.57634  0.14579  1.0000
  Si  Si1305    1.0  0.85421  0.75036  0.57634  1.0000
  Si  Si1306    1.0  0.42366  0.75036  0.14579  1.0000
  Si  Si1307    1.0  0.85421  0.57634  0.75036  1.0000
  Si  Si1308    1.0  0.24964  0.14579  0.57634  1.0000
  Si  Si1309    1.0  0.57634  0.85421  0.75036  1.0000
  Si  Si1310    1.0  0.75035  0.42366  0.14579  1.0000
  Si  Si1311    1.0  0.14579  0.24964  0.57634  1.0000
  Si  Si1312    1.0  0.57634  0.24965  0.14579  1.0000
  Si  Si1313    1.0  0.14579  0.42366  0.75036  1.0000
  Si  Si1314    1.0  0.75036  0.85421  0.57634  1.0000
  Si  Si1315    1.0  0.57634  0.14579  0.24964  1.0000
  Si  Si1316    1.0  0.75036  0.57634  0.85421  1.0000
  Si  Si1317    1.0  0.14579  0.75036  0.42366  1.0000
  Si  Si1318    1.0  0.57634  0.75036  0.85421  1.0000
  Si  Si1319    1.0  0.14579  0.57634  0.24964  1.0000
  Si  Si1320    1.0  0.75036  0.14579  0.42366  1.0000
  Si  Si1321    1.0  0.57634  0.14579  0.75036  1.0000
  Si  Si1322    1.0  0.75036  0.57634  0.14579  1.0000
  Si  Si1323    1.0  0.14579  0.75036  0.57634  1.0000
  Si  Si1324    1.0  0.57634  0.75036  0.14579  1.0000
  Si  Si1325    1.0  0.14579  0.57634  0.75035  1.0000
  Si  Si1326    1.0  0.75036  0.14579  0.57634  1.0000
  Si  Si1327    1.0  0.57634  0.85421  0.24964  1.0000
  Si  Si1328    1.0  0.75035  0.42366  0.85421  1.0000
  Si  Si1329    1.0  0.14579  0.24964  0.42366  1.0000
  Si  Si1330    1.0  0.57634  0.24964  0.85421  1.0000
  Si  Si1331    1.0  0.14579  0.42366  0.24964  1.0000
  Si  Si1332    1.0  0.75036  0.85421  0.42366  1.0000
  Si  Si1333    1.0  0.42366  0.14579  0.24964  1.0000
  Si  Si1334    1.0  0.24965  0.57634  0.85421  1.0000
  Si  Si1335    1.0  0.85421  0.75036  0.42366  1.0000
  Si  Si1336    1.0  0.42366  0.75035  0.85421  1.0000
  Si  Si1337    1.0  0.85421  0.57634  0.24964  1.0000
  Si  Si1338    1.0  0.24964  0.14579  0.42366  1.0000
  Si  Si1339    1.0  0.42366  0.85421  0.75036  1.0000
  Si  Si1340    1.0  0.24964  0.42366  0.14579  1.0000
  Si  Si1341    1.0  0.85421  0.24964  0.57634  1.0000
  Si  Si1342    1.0  0.42366  0.24964  0.14579  1.0000
  Si  Si1343    1.0  0.85421  0.42366  0.75036  1.0000
  Si  Si1344    1.0  0.24964  0.85421  0.57634  1.0000
  Si  Si1345    1.0  0.75000  0.35416  0.14583  1.0000
  Si  Si1346    1.0  0.14584  0.75000  0.35417  1.0000
  Si  Si1347    1.0  0.35417  0.14583  0.75000  1.0000
  Si  Si1348    1.0  0.75000  0.14584  0.35417  1.0000
  Si  Si1349    1.0  0.35416  0.75000  0.14583  1.0000
  Si  Si1350    1.0  0.14583  0.35417  0.75000  1.0000
  Si  Si1351    1.0  0.75000  0.64583  0.85417  1.0000
  Si  Si1352    1.0  0.14583  0.25000  0.64583  1.0000
  Si  Si1353    1.0  0.35417  0.85417  0.25000  1.0000
  Si  Si1354    1.0  0.75000  0.85417  0.64583  1.0000
  Si  Si1355    1.0  0.35417  0.25000  0.85417  1.0000
  Si  Si1356    1.0  0.14583  0.64583  0.25000  1.0000
  Si  Si1357    1.0  0.25000  0.35417  0.85417  1.0000
  Si  Si1358    1.0  0.85417  0.75000  0.64583  1.0000
  Si  Si1359    1.0  0.64584  0.14584  0.25000  1.0000
  Si  Si1360    1.0  0.25000  0.14583  0.64583  1.0000
  Si  Si1361    1.0  0.64583  0.75000  0.85417  1.0000
  Si  Si1362    1.0  0.85416  0.35416  0.25000  1.0000
  Si  Si1363    1.0  0.25000  0.64583  0.14584  1.0000
  Si  Si1364    1.0  0.85416  0.25000  0.35416  1.0000
  Si  Si1365    1.0  0.64583  0.85416  0.75000  1.0000
  Si  Si1366    1.0  0.25000  0.85417  0.35416  1.0000
  Si  Si1367    1.0  0.64584  0.25000  0.14584  1.0000
  Si  Si1368    1.0  0.85417  0.64584  0.75000  1.0000
  Si  Si1369    1.0  0.25000  0.64584  0.85417  1.0000
  Si  Si1370    1.0  0.85416  0.25000  0.64583  1.0000
  Si  Si1371    1.0  0.64583  0.85417  0.25000  1.0000
  Si  Si1372    1.0  0.25000  0.85416  0.64583  1.0000
  Si  Si1373    1.0  0.64584  0.25000  0.85417  1.0000
  Si  Si1374    1.0  0.85417  0.64583  0.25000  1.0000
  Si  Si1375    1.0  0.25000  0.35417  0.14583  1.0000
  Si  Si1376    1.0  0.85417  0.75000  0.35417  1.0000
  Si  Si1377    1.0  0.64583  0.14583  0.75000  1.0000
  Si  Si1378    1.0  0.25000  0.14583  0.35417  1.0000
  Si  Si1379    1.0  0.64583  0.75000  0.14583  1.0000
  Si  Si1380    1.0  0.85417  0.35417  0.75000  1.0000
  Si  Si1381    1.0  0.75000  0.64583  0.14583  1.0000
  Si  Si1382    1.0  0.14583  0.25000  0.35417  1.0000
  Si  Si1383    1.0  0.35416  0.85416  0.75000  1.0000
  Si  Si1384    1.0  0.75000  0.85417  0.35417  1.0000
  Si  Si1385    1.0  0.35417  0.25000  0.14583  1.0000
  Si  Si1386    1.0  0.14584  0.64584  0.75000  1.0000
  Si  Si1387    1.0  0.75000  0.35417  0.85416  1.0000
  Si  Si1388    1.0  0.14584  0.75000  0.64584  1.0000
  Si  Si1389    1.0  0.35417  0.14584  0.25000  1.0000
  Si  Si1390    1.0  0.75000  0.14583  0.64584  1.0000
  Si  Si1391    1.0  0.35416  0.75000  0.85416  1.0000
  Si  Si1392    1.0  0.14583  0.35416  0.25000  1.0000
  Si  Si1393    1.0  0.75000  0.42368  0.07632  1.0000
  Si  Si1394    1.0  0.07632  0.75000  0.42368  1.0000
  Si  Si1395    1.0  0.42368  0.07632  0.75000  1.0000
  Si  Si1396    1.0  0.75000  0.07632  0.42368  1.0000
  Si  Si1397    1.0  0.42368  0.75000  0.07632  1.0000
  Si  Si1398    1.0  0.07632  0.42368  0.75000  1.0000
  Si  Si1399    1.0  0.75000  0.57632  0.92368  1.0000
  Si  Si1400    1.0  0.07632  0.25000  0.57632  1.0000
  Si  Si1401    1.0  0.42368  0.92368  0.25000  1.0000
  Si  Si1402    1.0  0.75000  0.92368  0.57632  1.0000
  Si  Si1403    1.0  0.42368  0.25000  0.92368  1.0000
  Si  Si1404    1.0  0.07632  0.57632  0.25000  1.0000
  Si  Si1405    1.0  0.25000  0.42368  0.92368  1.0000
  Si  Si1406    1.0  0.92368  0.74999  0.57632  1.0000
  Si  Si1407    1.0  0.57633  0.07632  0.25000  1.0000
  Si  Si1408    1.0  0.25000  0.07632  0.57632  1.0000
  Si  Si1409    1.0  0.57632  0.75001  0.92368  1.0000
  Si  Si1410    1.0  0.92367  0.42368  0.25000  1.0000
  Si  Si1411    1.0  0.25000  0.57632  0.07632  1.0000
  Si  Si1412    1.0  0.92367  0.25000  0.42368  1.0000
  Si  Si1413    1.0  0.57632  0.92368  0.75000  1.0000
  Si  Si1414    1.0  0.25000  0.92368  0.42368  1.0000
  Si  Si1415    1.0  0.57633  0.25000  0.07632  1.0000
  Si  Si1416    1.0  0.92368  0.57632  0.75000  1.0000
  Si  Si1417    1.0  0.25000  0.57632  0.92368  1.0000
  Si  Si1418    1.0  0.92368  0.25000  0.57632  1.0000
  Si  Si1419    1.0  0.57632  0.92368  0.25000  1.0000
  Si  Si1420    1.0  0.25000  0.92368  0.57632  1.0000
  Si  Si1421    1.0  0.57632  0.25000  0.92368  1.0000
  Si  Si1422    1.0  0.92368  0.57632  0.25000  1.0000
  Si  Si1423    1.0  0.25000  0.42368  0.07632  1.0000
  Si  Si1424    1.0  0.92368  0.75000  0.42368  1.0000
  Si  Si1425    1.0  0.57632  0.07632  0.75000  1.0000
  Si  Si1426    1.0  0.25000  0.07632  0.42368  1.0000
  Si  Si1427    1.0  0.57632  0.75000  0.07632  1.0000
  Si  Si1428    1.0  0.92368  0.42368  0.75000  1.0000
  Si  Si1429    1.0  0.75000  0.57632  0.07632  1.0000
  Si  Si1430    1.0  0.07632  0.25001  0.42368  1.0000
  Si  Si1431    1.0  0.42367  0.92368  0.75000  1.0000
  Si  Si1432    1.0  0.75000  0.92368  0.42368  1.0000
  Si  Si1433    1.0  0.42368  0.24999  0.07632  1.0000
  Si  Si1434    1.0  0.07633  0.57632  0.75000  1.0000
  Si  Si1435    1.0  0.75000  0.42368  0.92368  1.0000
  Si  Si1436    1.0  0.07633  0.75000  0.57632  1.0000
  Si  Si1437    1.0  0.42368  0.07632  0.25000  1.0000
  Si  Si1438    1.0  0.75000  0.07632  0.57632  1.0000
  Si  Si1439    1.0  0.42367  0.75000  0.92368  1.0000
  Si  Si1440    1.0  0.07632  0.42368  0.25000  1.0000
