data_image0
_chemical_formula_structural       O1344Si672
_chemical_formula_sum              "O1344 Si672"
_cell_length_a       34.7144
_cell_length_b       34.7142
_cell_length_c       34.7141
_cell_angle_alpha    90
_cell_angle_beta     90
_cell_angle_gamma    90

_space_group_name_H-M_alt    "P 1"
_space_group_IT_number       1

loop_
  _space_group_symop_operation_xyz
  'x, y, z'

loop_
  _atom_site_type_symbol
  _atom_site_label
  _atom_site_symmetry_multiplicity
  _atom_site_fract_x
  _atom_site_fract_y
  _atom_site_fract_z
  _atom_site_occupancy
  O   O1        1.0  0.30668  0.23791  0.14261  1.0000
  O   O2        1.0  0.80668  0.73791  0.64261  1.0000
  O   O3        1.0  0.14261  0.30668  0.23791  1.0000
  O   O4        1.0  0.64261  0.80668  0.73791  1.0000
  O   O5        1.0  0.23791  0.14261  0.30668  1.0000
  O   O6        1.0  0.73791  0.64261  0.80668  1.0000
  O   O7        1.0  0.30668  0.23791  0.85739  1.0000
  O   O8        1.0  0.80668  0.73791  0.35739  1.0000
  O   O9        1.0  0.14261  0.30668  0.76209  1.0000
  O   O10       1.0  0.64261  0.80668  0.26209  1.0000
  O   O11       1.0  0.23791  0.14261  0.69332  1.0000
  O   O12       1.0  0.73791  0.64261  0.19332  1.0000
  O   O13       1.0  0.69332  0.23791  0.14261  1.0000
  O   O14       1.0  0.19332  0.73791  0.64261  1.0000
  O   O15       1.0  0.85739  0.30668  0.23791  1.0000
  O   O16       1.0  0.35739  0.80668  0.73791  1.0000
  O   O17       1.0  0.76209  0.14261  0.30668  1.0000
  O   O18       1.0  0.26209  0.64261  0.80668  1.0000
  O   O19       1.0  0.69332  0.23791  0.85739  1.0000
  O   O20       1.0  0.19332  0.73791  0.35739  1.0000
  O   O21       1.0  0.85739  0.30668  0.76209  1.0000
  O   O22       1.0  0.35739  0.80668  0.26209  1.0000
  O   O23       1.0  0.76209  0.14261  0.69332  1.0000
  O   O24       1.0  0.26209  0.64261  0.19332  1.0000
  O   O25       1.0  0.23791  0.30668  0.14261  1.0000
  O   O26       1.0  0.73791  0.80668  0.64261  1.0000
  O   O27       1.0  0.30668  0.14261  0.23791  1.0000
  O   O28       1.0  0.80668  0.64261  0.73791  1.0000
  O   O29       1.0  0.14261  0.23791  0.30668  1.0000
  O   O30       1.0  0.64261  0.73791  0.80668  1.0000
  O   O31       1.0  0.23791  0.30668  0.85739  1.0000
  O   O32       1.0  0.73791  0.80668  0.35739  1.0000
  O   O33       1.0  0.30668  0.14261  0.76209  1.0000
  O   O34       1.0  0.80668  0.64261  0.26209  1.0000
  O   O35       1.0  0.14261  0.23791  0.69332  1.0000
  O   O36       1.0  0.64261  0.73791  0.19332  1.0000
  O   O37       1.0  0.23791  0.69332  0.14261  1.0000
  O   O38       1.0  0.73791  0.19332  0.64261  1.0000
  O   O39       1.0  0.30668  0.85739  0.23791  1.0000
  O   O40       1.0  0.80668  0.35739  0.73791  1.0000
  O   O41       1.0  0.14261  0.76209  0.30668  1.0000
  O   O42       1.0  0.64261  0.26209  0.80668  1.0000
  O   O43       1.0  0.23791  0.69332  0.85739  1.0000
  O   O44       1.0  0.73791  0.19332  0.35739  1.0000
  O   O45       1.0  0.30668  0.85739  0.76209  1.0000
  O   O46       1.0  0.80668  0.35739  0.26209  1.0000
  O   O47       1.0  0.14261  0.76209  0.69332  1.0000
  O   O48       1.0  0.64261  0.26209  0.19332  1.0000
  O   O49       1.0  0.69332  0.76209  0.85739  1.0000
  O   O50       1.0  0.19332  0.26209  0.35739  1.0000
  O   O51       1.0  0.85739  0.69332  0.76209  1.0000
  O   O52       1.0  0.35739  0.19332  0.26209  1.0000
  O   O53       1.0  0.76209  0.85739  0.69332  1.0000
  O   O54       1.0  0.26209  0.35739  0.19332  1.0000
  O   O55       1.0  0.69332  0.76209  0.14261  1.0000
  O   O56       1.0  0.19332  0.26209  0.64261  1.0000
  O   O57       1.0  0.85739  0.69332  0.23791  1.0000
  O   O58       1.0  0.35739  0.19332  0.73791  1.0000
  O   O59       1.0  0.76209  0.85739  0.30668  1.0000
  O   O60       1.0  0.26209  0.35739  0.80668  1.0000
  O   O61       1.0  0.30668  0.76209  0.85739  1.0000
  O   O62       1.0  0.80668  0.26209  0.35739  1.0000
  O   O63       1.0  0.14261  0.69332  0.76209  1.0000
  O   O64       1.0  0.64261  0.19332  0.26209  1.0000
  O   O65       1.0  0.23791  0.85739  0.69332  1.0000
  O   O66       1.0  0.73791  0.35739  0.19332  1.0000
  O   O67       1.0  0.30668  0.76209  0.14261  1.0000
  O   O68       1.0  0.80668  0.26209  0.64261  1.0000
  O   O69       1.0  0.14261  0.69332  0.23791  1.0000
  O   O70       1.0  0.64261  0.19332  0.73791  1.0000
  O   O71       1.0  0.23791  0.85739  0.30668  1.0000
  O   O72       1.0  0.73791  0.35739  0.80668  1.0000
  O   O73       1.0  0.76209  0.69332  0.85739  1.0000
  O   O74       1.0  0.26209  0.19332  0.35739  1.0000
  O   O75       1.0  0.69332  0.85739  0.76209  1.0000
  O   O76       1.0  0.19332  0.35739  0.26209  1.0000
  O   O77       1.0  0.85739  0.76209  0.69332  1.0000
  O   O78       1.0  0.35739  0.26209  0.19332  1.0000
  O   O79       1.0  0.76209  0.69332  0.14261  1.0000
  O   O80       1.0  0.26209  0.19332  0.64261  1.0000
  O   O81       1.0  0.69332  0.85739  0.23791  1.0000
  O   O82       1.0  0.19332  0.35739  0.73791  1.0000
  O   O83       1.0  0.85739  0.76209  0.30668  1.0000
  O   O84       1.0  0.35739  0.26209  0.80668  1.0000
  O   O85       1.0  0.76209  0.30668  0.85739  1.0000
  O   O86       1.0  0.26209  0.80668  0.35739  1.0000
  O   O87       1.0  0.69332  0.14261  0.76209  1.0000
  O   O88       1.0  0.19332  0.64261  0.26209  1.0000
  O   O89       1.0  0.85739  0.23791  0.69332  1.0000
  O   O90       1.0  0.35739  0.73791  0.19332  1.0000
  O   O91       1.0  0.76209  0.30668  0.14261  1.0000
  O   O92       1.0  0.26209  0.80668  0.64261  1.0000
  O   O93       1.0  0.69332  0.14261  0.23791  1.0000
  O   O94       1.0  0.19332  0.64261  0.73791  1.0000
  O   O95       1.0  0.85739  0.23791  0.30668  1.0000
  O   O96       1.0  0.35739  0.73791  0.80668  1.0000
  O   O97       1.0  0.30077  0.21493  0.07085  1.0000
  O   O98       1.0  0.80077  0.71493  0.57085  1.0000
  O   O99       1.0  0.07085  0.30077  0.21493  1.0000
  O   O100      1.0  0.57085  0.80077  0.71493  1.0000
  O   O101      1.0  0.21493  0.07085  0.30077  1.0000
  O   O102      1.0  0.71493  0.57085  0.80077  1.0000
  O   O103      1.0  0.30077  0.21493  0.92915  1.0000
  O   O104      1.0  0.80077  0.71493  0.42915  1.0000
  O   O105      1.0  0.07085  0.30077  0.78507  1.0000
  O   O106      1.0  0.57085  0.80077  0.28507  1.0000
  O   O107      1.0  0.21493  0.07085  0.69923  1.0000
  O   O108      1.0  0.71493  0.57085  0.19923  1.0000
  O   O109      1.0  0.69923  0.21493  0.07085  1.0000
  O   O110      1.0  0.19923  0.71493  0.57085  1.0000
  O   O111      1.0  0.92915  0.30077  0.21493  1.0000
  O   O112      1.0  0.42915  0.80077  0.71493  1.0000
  O   O113      1.0  0.78507  0.07085  0.30077  1.0000
  O   O114      1.0  0.28507  0.57085  0.80077  1.0000
  O   O115      1.0  0.69923  0.21493  0.92915  1.0000
  O   O116      1.0  0.19923  0.71493  0.42915  1.0000
  O   O117      1.0  0.92915  0.30077  0.78507  1.0000
  O   O118      1.0  0.42915  0.80077  0.28507  1.0000
  O   O119      1.0  0.78507  0.07085  0.69923  1.0000
  O   O120      1.0  0.28507  0.57085  0.19923  1.0000
  O   O121      1.0  0.21493  0.30077  0.07085  1.0000
  O   O122      1.0  0.71493  0.80077  0.57085  1.0000
  O   O123      1.0  0.30077  0.07085  0.21493  1.0000
  O   O124      1.0  0.80077  0.57085  0.71493  1.0000
  O   O125      1.0  0.07085  0.21493  0.30077  1.0000
  O   O126      1.0  0.57085  0.71493  0.80077  1.0000
  O   O127      1.0  0.21493  0.30077  0.92915  1.0000
  O   O128      1.0  0.71493  0.80077  0.42915  1.0000
  O   O129      1.0  0.30077  0.07085  0.78507  1.0000
  O   O130      1.0  0.80077  0.57085  0.28507  1.0000
  O   O131      1.0  0.07085  0.21493  0.69923  1.0000
  O   O132      1.0  0.57085  0.71493  0.19923  1.0000
  O   O133      1.0  0.21493  0.69923  0.07085  1.0000
  O   O134      1.0  0.71493  0.19923  0.57085  1.0000
  O   O135      1.0  0.30077  0.92915  0.21493  1.0000
  O   O136      1.0  0.80077  0.42915  0.71493  1.0000
  O   O137      1.0  0.07085  0.78507  0.30077  1.0000
  O   O138      1.0  0.57085  0.28507  0.80077  1.0000
  O   O139      1.0  0.21493  0.69923  0.92915  1.0000
  O   O140      1.0  0.71493  0.19923  0.42915  1.0000
  O   O141      1.0  0.30077  0.92915  0.78507  1.0000
  O   O142      1.0  0.80077  0.42915  0.28507  1.0000
  O   O143      1.0  0.07085  0.78507  0.69923  1.0000
  O   O144      1.0  0.57085  0.28507  0.19923  1.0000
  O   O145      1.0  0.69923  0.78507  0.92915  1.0000
  O   O146      1.0  0.19923  0.28507  0.42915  1.0000
  O   O147      1.0  0.92915  0.69923  0.78507  1.0000
  O   O148      1.0  0.42915  0.19923  0.28507  1.0000
  O   O149      1.0  0.78507  0.92915  0.69923  1.0000
  O   O150      1.0  0.28507  0.42915  0.19923  1.0000
  O   O151      1.0  0.69923  0.78507  0.07085  1.0000
  O   O152      1.0  0.19923  0.28507  0.57085  1.0000
  O   O153      1.0  0.92915  0.69923  0.21493  1.0000
  O   O154      1.0  0.42915  0.19923  0.71493  1.0000
  O   O155      1.0  0.78507  0.92915  0.30077  1.0000
  O   O156      1.0  0.28507  0.42915  0.80077  1.0000
  O   O157      1.0  0.30077  0.78507  0.92915  1.0000
  O   O158      1.0  0.80077  0.28507  0.42915  1.0000
  O   O159      1.0  0.07085  0.69923  0.78507  1.0000
  O   O160      1.0  0.57085  0.19923  0.28507  1.0000
  O   O161      1.0  0.21493  0.92915  0.69923  1.0000
  O   O162      1.0  0.71493  0.42915  0.19923  1.0000
  O   O163      1.0  0.30077  0.78507  0.07085  1.0000
  O   O164      1.0  0.80077  0.28507  0.57085  1.0000
  O   O165      1.0  0.07085  0.69923  0.21493  1.0000
  O   O166      1.0  0.57085  0.19923  0.71493  1.0000
  O   O167      1.0  0.21493  0.92915  0.30077  1.0000
  O   O168      1.0  0.71493  0.42915  0.80077  1.0000
  O   O169      1.0  0.78507  0.69923  0.92915  1.0000
  O   O170      1.0  0.28507  0.19923  0.42915  1.0000
  O   O171      1.0  0.69923  0.92915  0.78507  1.0000
  O   O172      1.0  0.19923  0.42915  0.28507  1.0000
  O   O173      1.0  0.92915  0.78507  0.69923  1.0000
  O   O174      1.0  0.42915  0.28507  0.19923  1.0000
  O   O175      1.0  0.78507  0.69923  0.07085  1.0000
  O   O176      1.0  0.28507  0.19923  0.57085  1.0000
  O   O177      1.0  0.69923  0.92915  0.21493  1.0000
  O   O178      1.0  0.19923  0.42915  0.71493  1.0000
  O   O179      1.0  0.92915  0.78507  0.30077  1.0000
  O   O180      1.0  0.42915  0.28507  0.80077  1.0000
  O   O181      1.0  0.78507  0.30077  0.92915  1.0000
  O   O182      1.0  0.28507  0.80077  0.42915  1.0000
  O   O183      1.0  0.69923  0.07085  0.78507  1.0000
  O   O184      1.0  0.19923  0.57085  0.28507  1.0000
  O   O185      1.0  0.92915  0.21493  0.69923  1.0000
  O   O186      1.0  0.42915  0.71493  0.19923  1.0000
  O   O187      1.0  0.78507  0.30077  0.07085  1.0000
  O   O188      1.0  0.28507  0.80077  0.57085  1.0000
  O   O189      1.0  0.69923  0.07085  0.21493  1.0000
  O   O190      1.0  0.19923  0.57085  0.71493  1.0000
  O   O191      1.0  0.92915  0.21493  0.30077  1.0000
  O   O192      1.0  0.42915  0.71493  0.80077  1.0000
  O   O193      1.0  0.35752  0.26110  0.09124  1.0000
  O   O194      1.0  0.85752  0.76110  0.59124  1.0000
  O   O195      1.0  0.09124  0.35752  0.26110  1.0000
  O   O196      1.0  0.59124  0.85752  0.76110  1.0000
  O   O197      1.0  0.26110  0.09124  0.35752  1.0000
  O   O198      1.0  0.76110  0.59124  0.85752  1.0000
  O   O199      1.0  0.35752  0.26110  0.90876  1.0000
  O   O200      1.0  0.85752  0.76110  0.40876  1.0000
  O   O201      1.0  0.09124  0.35752  0.73890  1.0000
  O   O202      1.0  0.59124  0.85752  0.23890  1.0000
  O   O203      1.0  0.26110  0.09124  0.64248  1.0000
  O   O204      1.0  0.76110  0.59124  0.14248  1.0000
  O   O205      1.0  0.64248  0.26110  0.09124  1.0000
  O   O206      1.0  0.14248  0.76110  0.59124  1.0000
  O   O207      1.0  0.90876  0.35752  0.26110  1.0000
  O   O208      1.0  0.40876  0.85752  0.76110  1.0000
  O   O209      1.0  0.73890  0.09124  0.35752  1.0000
  O   O210      1.0  0.23890  0.59124  0.85752  1.0000
  O   O211      1.0  0.64248  0.26110  0.90876  1.0000
  O   O212      1.0  0.14248  0.76110  0.40876  1.0000
  O   O213      1.0  0.90876  0.35752  0.73890  1.0000
  O   O214      1.0  0.40876  0.85752  0.23890  1.0000
  O   O215      1.0  0.73890  0.09124  0.64248  1.0000
  O   O216      1.0  0.23890  0.59124  0.14248  1.0000
  O   O217      1.0  0.26110  0.35752  0.09124  1.0000
  O   O218      1.0  0.76110  0.85752  0.59124  1.0000
  O   O219      1.0  0.35752  0.09124  0.26110  1.0000
  O   O220      1.0  0.85752  0.59124  0.76110  1.0000
  O   O221      1.0  0.09124  0.26110  0.35752  1.0000
  O   O222      1.0  0.59124  0.76110  0.85752  1.0000
  O   O223      1.0  0.26110  0.35752  0.90876  1.0000
  O   O224      1.0  0.76110  0.85752  0.40876  1.0000
  O   O225      1.0  0.35752  0.09124  0.73890  1.0000
  O   O226      1.0  0.85752  0.59124  0.23890  1.0000
  O   O227      1.0  0.09124  0.26110  0.64248  1.0000
  O   O228      1.0  0.59124  0.76110  0.14248  1.0000
  O   O229      1.0  0.26110  0.64248  0.09124  1.0000
  O   O230      1.0  0.76110  0.14248  0.59124  1.0000
  O   O231      1.0  0.35752  0.90876  0.26110  1.0000
  O   O232      1.0  0.85752  0.40876  0.76110  1.0000
  O   O233      1.0  0.09124  0.73890  0.35752  1.0000
  O   O234      1.0  0.59124  0.23890  0.85752  1.0000
  O   O235      1.0  0.26110  0.64248  0.90876  1.0000
  O   O236      1.0  0.76110  0.14248  0.40876  1.0000
  O   O237      1.0  0.35752  0.90876  0.73890  1.0000
  O   O238      1.0  0.85752  0.40876  0.23890  1.0000
  O   O239      1.0  0.09124  0.73890  0.64248  1.0000
  O   O240      1.0  0.59124  0.23890  0.14248  1.0000
  O   O241      1.0  0.64248  0.73890  0.90876  1.0000
  O   O242      1.0  0.14248  0.23890  0.40876  1.0000
  O   O243      1.0  0.90876  0.64248  0.73890  1.0000
  O   O244      1.0  0.40876  0.14248  0.23890  1.0000
  O   O245      1.0  0.73890  0.90876  0.64248  1.0000
  O   O246      1.0  0.23890  0.40876  0.14248  1.0000
  O   O247      1.0  0.64248  0.73890  0.09124  1.0000
  O   O248      1.0  0.14248  0.23890  0.59124  1.0000
  O   O249      1.0  0.90876  0.64248  0.26110  1.0000
  O   O250      1.0  0.40876  0.14248  0.76110  1.0000
  O   O251      1.0  0.73890  0.90876  0.35752  1.0000
  O   O252      1.0  0.23890  0.40876  0.85752  1.0000
  O   O253      1.0  0.35752  0.73890  0.90876  1.0000
  O   O254      1.0  0.85752  0.23890  0.40876  1.0000
  O   O255      1.0  0.09124  0.64248  0.73890  1.0000
  O   O256      1.0  0.59124  0.14248  0.23890  1.0000
  O   O257      1.0  0.26110  0.90876  0.64248  1.0000
  O   O258      1.0  0.76110  0.40876  0.14248  1.0000
  O   O259      1.0  0.35752  0.73890  0.09124  1.0000
  O   O260      1.0  0.85752  0.23890  0.59124  1.0000
  O   O261      1.0  0.09124  0.64248  0.26110  1.0000
  O   O262      1.0  0.59124  0.14248  0.76110  1.0000
  O   O263      1.0  0.26110  0.90876  0.35752  1.0000
  O   O264      1.0  0.76110  0.40876  0.85752  1.0000
  O   O265      1.0  0.73890  0.64248  0.90876  1.0000
  O   O266      1.0  0.23890  0.14248  0.40876  1.0000
  O   O267      1.0  0.64248  0.90876  0.73890  1.0000
  O   O268      1.0  0.14248  0.40876  0.23890  1.0000
  O   O269      1.0  0.90876  0.73890  0.64248  1.0000
  O   O270      1.0  0.40876  0.23890  0.14248  1.0000
  O   O271      1.0  0.73890  0.64248  0.09124  1.0000
  O   O272      1.0  0.23890  0.14248  0.59124  1.0000
  O   O273      1.0  0.64248  0.90876  0.26110  1.0000
  O   O274      1.0  0.14248  0.40876  0.76110  1.0000
  O   O275      1.0  0.90876  0.73890  0.35752  1.0000
  O   O276      1.0  0.40876  0.23890  0.85752  1.0000
  O   O277      1.0  0.73890  0.35752  0.90876  1.0000
  O   O278      1.0  0.23890  0.85752  0.40876  1.0000
  O   O279      1.0  0.64248  0.09124  0.73890  1.0000
  O   O280      1.0  0.14248  0.59124  0.23890  1.0000
  O   O281      1.0  0.90876  0.26110  0.64248  1.0000
  O   O282      1.0  0.40876  0.76110  0.14248  1.0000
  O   O283      1.0  0.73890  0.35752  0.09124  1.0000
  O   O284      1.0  0.23890  0.85752  0.59124  1.0000
  O   O285      1.0  0.64248  0.09124  0.26110  1.0000
  O   O286      1.0  0.14248  0.59124  0.76110  1.0000
  O   O287      1.0  0.90876  0.26110  0.35752  1.0000
  O   O288      1.0  0.40876  0.76110  0.85752  1.0000
  O   O289      1.0  0.28690  0.28690  0.08800  1.0000
  O   O290      1.0  0.78690  0.78690  0.58800  1.0000
  O   O291      1.0  0.08800  0.28690  0.28690  1.0000
  O   O292      1.0  0.58800  0.78690  0.78690  1.0000
  O   O293      1.0  0.28690  0.08800  0.28690  1.0000
  O   O294      1.0  0.78690  0.58800  0.78690  1.0000
  O   O295      1.0  0.28690  0.28690  0.91200  1.0000
  O   O296      1.0  0.78690  0.78690  0.41200  1.0000
  O   O297      1.0  0.08800  0.28690  0.71310  1.0000
  O   O298      1.0  0.58800  0.78690  0.21310  1.0000
  O   O299      1.0  0.28690  0.08800  0.71310  1.0000
  O   O300      1.0  0.78690  0.58800  0.21310  1.0000
  O   O301      1.0  0.71310  0.28690  0.08800  1.0000
  O   O302      1.0  0.21310  0.78690  0.58800  1.0000
  O   O303      1.0  0.91200  0.28690  0.28690  1.0000
  O   O304      1.0  0.41200  0.78690  0.78690  1.0000
  O   O305      1.0  0.71310  0.08800  0.28690  1.0000
  O   O306      1.0  0.21310  0.58800  0.78690  1.0000
  O   O307      1.0  0.71310  0.28690  0.91200  1.0000
  O   O308      1.0  0.21310  0.78690  0.41200  1.0000
  O   O309      1.0  0.91200  0.28690  0.71310  1.0000
  O   O310      1.0  0.41200  0.78690  0.21310  1.0000
  O   O311      1.0  0.71310  0.08800  0.71310  1.0000
  O   O312      1.0  0.21310  0.58800  0.21310  1.0000
  O   O313      1.0  0.28690  0.71310  0.08800  1.0000
  O   O314      1.0  0.78690  0.21310  0.58800  1.0000
  O   O315      1.0  0.28690  0.91200  0.28690  1.0000
  O   O316      1.0  0.78690  0.41200  0.78690  1.0000
  O   O317      1.0  0.08800  0.71310  0.28690  1.0000
  O   O318      1.0  0.58800  0.21310  0.78690  1.0000
  O   O319      1.0  0.28690  0.71310  0.91200  1.0000
  O   O320      1.0  0.78690  0.21310  0.41200  1.0000
  O   O321      1.0  0.28690  0.91200  0.71310  1.0000
  O   O322      1.0  0.78690  0.41200  0.21310  1.0000
  O   O323      1.0  0.08800  0.71310  0.71310  1.0000
  O   O324      1.0  0.58800  0.21310  0.21310  1.0000
  O   O325      1.0  0.71310  0.71310  0.91200  1.0000
  O   O326      1.0  0.21310  0.21310  0.41200  1.0000
  O   O327      1.0  0.91200  0.71310  0.71310  1.0000
  O   O328      1.0  0.41200  0.21310  0.21310  1.0000
  O   O329      1.0  0.71310  0.91200  0.71310  1.0000
  O   O330      1.0  0.21310  0.41200  0.21310  1.0000
  O   O331      1.0  0.71310  0.71310  0.08800  1.0000
  O   O332      1.0  0.21310  0.21310  0.58800  1.0000
  O   O333      1.0  0.91200  0.71310  0.28690  1.0000
  O   O334      1.0  0.41200  0.21310  0.78690  1.0000
  O   O335      1.0  0.71310  0.91200  0.28690  1.0000
  O   O336      1.0  0.21310  0.41200  0.78690  1.0000
  O   O337      1.0  0.50000  0.11978  0.05090  1.0000
  O   O338      1.0  0.00000  0.61978  0.55090  1.0000
  O   O339      1.0  0.05090  0.50000  0.11978  1.0000
  O   O340      1.0  0.55090  1.00000  0.61978  1.0000
  O   O341      1.0  0.11978  0.05090  0.50000  1.0000
  O   O342      1.0  0.61978  0.55090  0.00000  1.0000
  O   O343      1.0  0.50000  0.11978  0.94910  1.0000
  O   O344      1.0  0.00000  0.61978  0.44910  1.0000
  O   O345      1.0  0.05090  0.50000  0.88022  1.0000
  O   O346      1.0  0.55090  1.00000  0.38022  1.0000
  O   O347      1.0  0.94910  0.50000  0.11978  1.0000
  O   O348      1.0  0.44910  0.00000  0.61978  1.0000
  O   O349      1.0  0.88022  0.05090  0.50000  1.0000
  O   O350      1.0  0.38022  0.55090  1.00000  1.0000
  O   O351      1.0  0.94910  0.50000  0.88022  1.0000
  O   O352      1.0  0.44910  0.00000  0.38022  1.0000
  O   O353      1.0  0.11978  0.50000  0.05090  1.0000
  O   O354      1.0  0.61978  1.00000  0.55090  1.0000
  O   O355      1.0  0.50000  0.05090  0.11978  1.0000
  O   O356      1.0  0.00000  0.55090  0.61978  1.0000
  O   O357      1.0  0.05090  0.11978  0.50000  1.0000
  O   O358      1.0  0.55090  0.61978  0.00000  1.0000
  O   O359      1.0  0.11978  0.50000  0.94910  1.0000
  O   O360      1.0  0.61978  1.00000  0.44910  1.0000
  O   O361      1.0  0.50000  0.05090  0.88022  1.0000
  O   O362      1.0  0.00000  0.55090  0.38022  1.0000
  O   O363      1.0  0.50000  0.94910  0.11978  1.0000
  O   O364      1.0  0.00000  0.44910  0.61978  1.0000
  O   O365      1.0  0.05090  0.88022  0.50000  1.0000
  O   O366      1.0  0.55090  0.38022  1.00000  1.0000
  O   O367      1.0  0.50000  0.94910  0.88022  1.0000
  O   O368      1.0  0.00000  0.44910  0.38022  1.0000
  O   O369      1.0  0.50000  0.88022  0.94910  1.0000
  O   O370      1.0  1.00000  0.38022  0.44910  1.0000
  O   O371      1.0  0.88022  0.94910  0.50000  1.0000
  O   O372      1.0  0.38022  0.44910  1.00000  1.0000
  O   O373      1.0  0.50000  0.88022  0.05090  1.0000
  O   O374      1.0  1.00000  0.38022  0.55090  1.0000
  O   O375      1.0  0.11978  0.94910  0.50000  1.0000
  O   O376      1.0  0.61978  0.44910  0.00000  1.0000
  O   O377      1.0  0.88022  0.50000  0.94910  1.0000
  O   O378      1.0  0.38022  0.00000  0.44910  1.0000
  O   O379      1.0  0.94910  0.88022  0.50000  1.0000
  O   O380      1.0  0.44910  0.38022  1.00000  1.0000
  O   O381      1.0  0.88022  0.50000  0.05090  1.0000
  O   O382      1.0  0.38022  0.00000  0.55090  1.0000
  O   O383      1.0  0.94910  0.11978  0.50000  1.0000
  O   O384      1.0  0.44910  0.61978  0.00000  1.0000
  O   O385      1.0  0.44558  0.07037  0.07037  1.0000
  O   O386      1.0  0.94558  0.57037  0.57037  1.0000
  O   O387      1.0  0.07037  0.44558  0.07037  1.0000
  O   O388      1.0  0.57037  0.94558  0.57037  1.0000
  O   O389      1.0  0.07037  0.07037  0.44558  1.0000
  O   O390      1.0  0.57037  0.57037  0.94558  1.0000
  O   O391      1.0  0.44558  0.07037  0.92963  1.0000
  O   O392      1.0  0.94558  0.57037  0.42963  1.0000
  O   O393      1.0  0.07037  0.44558  0.92963  1.0000
  O   O394      1.0  0.57037  0.94558  0.42963  1.0000
  O   O395      1.0  0.07037  0.07037  0.55442  1.0000
  O   O396      1.0  0.57037  0.57037  0.05442  1.0000
  O   O397      1.0  0.55442  0.07037  0.07037  1.0000
  O   O398      1.0  0.05442  0.57037  0.57037  1.0000
  O   O399      1.0  0.92963  0.44558  0.07037  1.0000
  O   O400      1.0  0.42963  0.94558  0.57037  1.0000
  O   O401      1.0  0.92963  0.07037  0.44558  1.0000
  O   O402      1.0  0.42963  0.57037  0.94558  1.0000
  O   O403      1.0  0.55442  0.07037  0.92963  1.0000
  O   O404      1.0  0.05442  0.57037  0.42963  1.0000
  O   O405      1.0  0.92963  0.44558  0.92963  1.0000
  O   O406      1.0  0.42963  0.94558  0.42963  1.0000
  O   O407      1.0  0.92963  0.07037  0.55442  1.0000
  O   O408      1.0  0.42963  0.57037  0.05442  1.0000
  O   O409      1.0  0.07037  0.55442  0.07037  1.0000
  O   O410      1.0  0.57037  0.05442  0.57037  1.0000
  O   O411      1.0  0.44558  0.92963  0.07037  1.0000
  O   O412      1.0  0.94558  0.42963  0.57037  1.0000
  O   O413      1.0  0.07037  0.92963  0.44558  1.0000
  O   O414      1.0  0.57037  0.42963  0.94558  1.0000
  O   O415      1.0  0.07037  0.55442  0.92963  1.0000
  O   O416      1.0  0.57037  0.05442  0.42963  1.0000
  O   O417      1.0  0.44558  0.92963  0.92963  1.0000
  O   O418      1.0  0.94558  0.42963  0.42963  1.0000
  O   O419      1.0  0.07037  0.92963  0.55442  1.0000
  O   O420      1.0  0.57037  0.42963  0.05442  1.0000
  O   O421      1.0  0.55442  0.92963  0.92963  1.0000
  O   O422      1.0  0.05442  0.42963  0.42963  1.0000
  O   O423      1.0  0.92963  0.55442  0.92963  1.0000
  O   O424      1.0  0.42963  0.05442  0.42963  1.0000
  O   O425      1.0  0.92963  0.92963  0.55442  1.0000
  O   O426      1.0  0.42963  0.42963  0.05442  1.0000
  O   O427      1.0  0.55442  0.92963  0.07037  1.0000
  O   O428      1.0  0.05442  0.42963  0.57037  1.0000
  O   O429      1.0  0.92963  0.55442  0.07037  1.0000
  O   O430      1.0  0.42963  0.05442  0.57037  1.0000
  O   O431      1.0  0.92963  0.92963  0.44558  1.0000
  O   O432      1.0  0.42963  0.42963  0.94558  1.0000
  O   O433      1.0  0.44889  0.09639  0.00000  1.0000
  O   O434      1.0  0.94889  0.59639  0.50000  1.0000
  O   O435      1.0  1.00000  0.44889  0.09639  1.0000
  O   O436      1.0  0.50000  0.94889  0.59639  1.0000
  O   O437      1.0  0.09639  0.00000  0.44889  1.0000
  O   O438      1.0  0.59639  0.50000  0.94889  1.0000
  O   O439      1.0  0.00000  0.44889  0.90361  1.0000
  O   O440      1.0  0.50000  0.94889  0.40361  1.0000
  O   O441      1.0  0.09639  1.00000  0.55111  1.0000
  O   O442      1.0  0.59639  0.50000  0.05111  1.0000
  O   O443      1.0  0.55111  0.09639  0.00000  1.0000
  O   O444      1.0  0.05111  0.59639  0.50000  1.0000
  O   O445      1.0  0.90361  0.00000  0.44889  1.0000
  O   O446      1.0  0.40361  0.50000  0.94889  1.0000
  O   O447      1.0  0.90361  1.00000  0.55111  1.0000
  O   O448      1.0  0.40361  0.50000  0.05111  1.0000
  O   O449      1.0  0.09639  0.44889  1.00000  1.0000
  O   O450      1.0  0.59639  0.94889  0.50000  1.0000
  O   O451      1.0  0.44889  0.00000  0.09639  1.0000
  O   O452      1.0  0.94889  0.50000  0.59639  1.0000
  O   O453      1.0  1.00000  0.09639  0.44889  1.0000
  O   O454      1.0  0.50000  0.59639  0.94889  1.0000
  O   O455      1.0  0.44889  0.00000  0.90361  1.0000
  O   O456      1.0  0.94889  0.50000  0.40361  1.0000
  O   O457      1.0  1.00000  0.09639  0.55111  1.0000
  O   O458      1.0  0.50000  0.59639  0.05111  1.0000
  O   O459      1.0  0.09639  0.55111  1.00000  1.0000
  O   O460      1.0  0.59639  0.05111  0.50000  1.0000
  O   O461      1.0  0.00000  0.90361  0.44889  1.0000
  O   O462      1.0  0.50000  0.40361  0.94889  1.0000
  O   O463      1.0  0.00000  0.90361  0.55111  1.0000
  O   O464      1.0  0.50000  0.40361  0.05111  1.0000
  O   O465      1.0  0.55111  0.90361  1.00000  1.0000
  O   O466      1.0  0.05111  0.40361  0.50000  1.0000
  O   O467      1.0  0.00000  0.55111  0.90361  1.0000
  O   O468      1.0  0.50000  0.05111  0.40361  1.0000
  O   O469      1.0  1.00000  0.55111  0.09639  1.0000
  O   O470      1.0  0.50000  0.05111  0.59639  1.0000
  O   O471      1.0  0.44889  0.90361  1.00000  1.0000
  O   O472      1.0  0.94889  0.40361  0.50000  1.0000
  O   O473      1.0  0.90361  0.55111  0.00000  1.0000
  O   O474      1.0  0.40361  0.05111  0.50000  1.0000
  O   O475      1.0  0.55111  1.00000  0.90361  1.0000
  O   O476      1.0  0.05111  0.50000  0.40361  1.0000
  O   O477      1.0  0.55111  0.00000  0.09639  1.0000
  O   O478      1.0  0.05111  0.50000  0.59639  1.0000
  O   O479      1.0  0.90361  0.44889  0.00000  1.0000
  O   O480      1.0  0.40361  0.94889  0.50000  1.0000
  O   O481      1.0  0.42795  0.14219  0.05672  1.0000
  O   O482      1.0  0.92795  0.64219  0.55672  1.0000
  O   O483      1.0  0.05672  0.42795  0.14219  1.0000
  O   O484      1.0  0.55672  0.92795  0.64219  1.0000
  O   O485      1.0  0.14219  0.05672  0.42795  1.0000
  O   O486      1.0  0.64219  0.55672  0.92795  1.0000
  O   O487      1.0  0.42795  0.14219  0.94328  1.0000
  O   O488      1.0  0.92795  0.64219  0.44328  1.0000
  O   O489      1.0  0.05672  0.42795  0.85781  1.0000
  O   O490      1.0  0.55672  0.92795  0.35781  1.0000
  O   O491      1.0  0.14219  0.05672  0.57205  1.0000
  O   O492      1.0  0.64219  0.55672  0.07205  1.0000
  O   O493      1.0  0.57205  0.14219  0.05672  1.0000
  O   O494      1.0  0.07205  0.64219  0.55672  1.0000
  O   O495      1.0  0.94328  0.42795  0.14219  1.0000
  O   O496      1.0  0.44328  0.92795  0.64219  1.0000
  O   O497      1.0  0.85781  0.05672  0.42795  1.0000
  O   O498      1.0  0.35781  0.55672  0.92795  1.0000
  O   O499      1.0  0.57205  0.14219  0.94328  1.0000
  O   O500      1.0  0.07205  0.64219  0.44328  1.0000
  O   O501      1.0  0.94328  0.42795  0.85781  1.0000
  O   O502      1.0  0.44328  0.92795  0.35781  1.0000
  O   O503      1.0  0.85781  0.05672  0.57205  1.0000
  O   O504      1.0  0.35781  0.55672  0.07205  1.0000
  O   O505      1.0  0.14219  0.42795  0.05672  1.0000
  O   O506      1.0  0.64219  0.92795  0.55672  1.0000
  O   O507      1.0  0.42795  0.05672  0.14219  1.0000
  O   O508      1.0  0.92795  0.55672  0.64219  1.0000
  O   O509      1.0  0.05672  0.14219  0.42795  1.0000
  O   O510      1.0  0.55672  0.64219  0.92795  1.0000
  O   O511      1.0  0.14219  0.42795  0.94328  1.0000
  O   O512      1.0  0.64219  0.92795  0.44328  1.0000
  O   O513      1.0  0.42795  0.05672  0.85781  1.0000
  O   O514      1.0  0.92795  0.55672  0.35781  1.0000
  O   O515      1.0  0.05672  0.14219  0.57205  1.0000
  O   O516      1.0  0.55672  0.64219  0.07205  1.0000
  O   O517      1.0  0.14219  0.57205  0.05672  1.0000
  O   O518      1.0  0.64219  0.07205  0.55672  1.0000
  O   O519      1.0  0.42795  0.94328  0.14219  1.0000
  O   O520      1.0  0.92795  0.44328  0.64219  1.0000
  O   O521      1.0  0.05672  0.85781  0.42795  1.0000
  O   O522      1.0  0.55672  0.35781  0.92795  1.0000
  O   O523      1.0  0.14219  0.57205  0.94328  1.0000
  O   O524      1.0  0.64219  0.07205  0.44328  1.0000
  O   O525      1.0  0.42795  0.94328  0.85781  1.0000
  O   O526      1.0  0.92795  0.44328  0.35781  1.0000
  O   O527      1.0  0.05672  0.85781  0.57205  1.0000
  O   O528      1.0  0.55672  0.35781  0.07205  1.0000
  O   O529      1.0  0.57205  0.85781  0.94328  1.0000
  O   O530      1.0  0.07205  0.35781  0.44328  1.0000
  O   O531      1.0  0.94328  0.57205  0.85781  1.0000
  O   O532      1.0  0.44328  0.07205  0.35781  1.0000
  O   O533      1.0  0.85781  0.94328  0.57205  1.0000
  O   O534      1.0  0.35781  0.44328  0.07205  1.0000
  O   O535      1.0  0.57205  0.85781  0.05672  1.0000
  O   O536      1.0  0.07205  0.35781  0.55672  1.0000
  O   O537      1.0  0.94328  0.57205  0.14219  1.0000
  O   O538      1.0  0.44328  0.07205  0.64219  1.0000
  O   O539      1.0  0.85781  0.94328  0.42795  1.0000
  O   O540      1.0  0.35781  0.44328  0.92795  1.0000
  O   O541      1.0  0.42795  0.85781  0.94328  1.0000
  O   O542      1.0  0.92795  0.35781  0.44328  1.0000
  O   O543      1.0  0.05672  0.57205  0.85781  1.0000
  O   O544      1.0  0.55672  0.07205  0.35781  1.0000
  O   O545      1.0  0.14219  0.94328  0.57205  1.0000
  O   O546      1.0  0.64219  0.44328  0.07205  1.0000
  O   O547      1.0  0.42795  0.85781  0.05672  1.0000
  O   O548      1.0  0.92795  0.35781  0.55672  1.0000
  O   O549      1.0  0.05672  0.57205  0.14219  1.0000
  O   O550      1.0  0.55672  0.07205  0.64219  1.0000
  O   O551      1.0  0.14219  0.94328  0.42795  1.0000
  O   O552      1.0  0.64219  0.44328  0.92795  1.0000
  O   O553      1.0  0.85781  0.57205  0.94328  1.0000
  O   O554      1.0  0.35781  0.07205  0.44328  1.0000
  O   O555      1.0  0.57205  0.94328  0.85781  1.0000
  O   O556      1.0  0.07205  0.44328  0.35781  1.0000
  O   O557      1.0  0.94328  0.85781  0.57205  1.0000
  O   O558      1.0  0.44328  0.35781  0.07205  1.0000
  O   O559      1.0  0.85781  0.57205  0.05672  1.0000
  O   O560      1.0  0.35781  0.07205  0.55672  1.0000
  O   O561      1.0  0.57205  0.94328  0.14219  1.0000
  O   O562      1.0  0.07205  0.44328  0.64219  1.0000
  O   O563      1.0  0.94328  0.85781  0.42795  1.0000
  O   O564      1.0  0.44328  0.35781  0.92795  1.0000
  O   O565      1.0  0.85781  0.42795  0.94328  1.0000
  O   O566      1.0  0.35781  0.92795  0.44328  1.0000
  O   O567      1.0  0.57205  0.05672  0.85781  1.0000
  O   O568      1.0  0.07205  0.55672  0.35781  1.0000
  O   O569      1.0  0.94328  0.14219  0.57205  1.0000
  O   O570      1.0  0.44328  0.64219  0.07205  1.0000
  O   O571      1.0  0.85781  0.42795  0.05672  1.0000
  O   O572      1.0  0.35781  0.92795  0.55672  1.0000
  O   O573      1.0  0.57205  0.05672  0.14219  1.0000
  O   O574      1.0  0.07205  0.55672  0.64219  1.0000
  O   O575      1.0  0.94328  0.14219  0.42795  1.0000
  O   O576      1.0  0.44328  0.64219  0.92795  1.0000
  O   O577      1.0  0.35703  0.16774  0.05139  1.0000
  O   O578      1.0  0.85703  0.66774  0.55139  1.0000
  O   O579      1.0  0.05139  0.35703  0.16774  1.0000
  O   O580      1.0  0.55139  0.85703  0.66774  1.0000
  O   O581      1.0  0.16774  0.05139  0.35703  1.0000
  O   O582      1.0  0.66774  0.55139  0.85703  1.0000
  O   O583      1.0  0.35703  0.16774  0.94861  1.0000
  O   O584      1.0  0.85703  0.66774  0.44861  1.0000
  O   O585      1.0  0.05139  0.35703  0.83226  1.0000
  O   O586      1.0  0.55139  0.85703  0.33226  1.0000
  O   O587      1.0  0.16774  0.05139  0.64297  1.0000
  O   O588      1.0  0.66774  0.55139  0.14297  1.0000
  O   O589      1.0  0.64297  0.16774  0.05139  1.0000
  O   O590      1.0  0.14297  0.66774  0.55139  1.0000
  O   O591      1.0  0.94861  0.35703  0.16774  1.0000
  O   O592      1.0  0.44861  0.85703  0.66774  1.0000
  O   O593      1.0  0.83226  0.05139  0.35703  1.0000
  O   O594      1.0  0.33226  0.55139  0.85703  1.0000
  O   O595      1.0  0.64297  0.16774  0.94861  1.0000
  O   O596      1.0  0.14297  0.66774  0.44861  1.0000
  O   O597      1.0  0.94861  0.35703  0.83226  1.0000
  O   O598      1.0  0.44861  0.85703  0.33226  1.0000
  O   O599      1.0  0.83226  0.05139  0.64297  1.0000
  O   O600      1.0  0.33226  0.55139  0.14297  1.0000
  O   O601      1.0  0.16774  0.35703  0.05139  1.0000
  O   O602      1.0  0.66774  0.85703  0.55139  1.0000
  O   O603      1.0  0.35703  0.05139  0.16774  1.0000
  O   O604      1.0  0.85703  0.55139  0.66774  1.0000
  O   O605      1.0  0.05139  0.16774  0.35703  1.0000
  O   O606      1.0  0.55139  0.66774  0.85703  1.0000
  O   O607      1.0  0.16774  0.35703  0.94861  1.0000
  O   O608      1.0  0.66774  0.85703  0.44861  1.0000
  O   O609      1.0  0.35703  0.05139  0.83226  1.0000
  O   O610      1.0  0.85703  0.55139  0.33226  1.0000
  O   O611      1.0  0.05139  0.16774  0.64297  1.0000
  O   O612      1.0  0.55139  0.66774  0.14297  1.0000
  O   O613      1.0  0.16774  0.64297  0.05139  1.0000
  O   O614      1.0  0.66774  0.14297  0.55139  1.0000
  O   O615      1.0  0.35703  0.94861  0.16774  1.0000
  O   O616      1.0  0.85703  0.44861  0.66774  1.0000
  O   O617      1.0  0.05139  0.83226  0.35703  1.0000
  O   O618      1.0  0.55139  0.33226  0.85703  1.0000
  O   O619      1.0  0.16774  0.64297  0.94861  1.0000
  O   O620      1.0  0.66774  0.14297  0.44861  1.0000
  O   O621      1.0  0.35703  0.94861  0.83226  1.0000
  O   O622      1.0  0.85703  0.44861  0.33226  1.0000
  O   O623      1.0  0.05139  0.83226  0.64297  1.0000
  O   O624      1.0  0.55139  0.33226  0.14297  1.0000
  O   O625      1.0  0.64297  0.83226  0.94861  1.0000
  O   O626      1.0  0.14297  0.33226  0.44861  1.0000
  O   O627      1.0  0.94861  0.64297  0.83226  1.0000
  O   O628      1.0  0.44861  0.14297  0.33226  1.0000
  O   O629      1.0  0.83226  0.94861  0.64297  1.0000
  O   O630      1.0  0.33226  0.44861  0.14297  1.0000
  O   O631      1.0  0.64297  0.83226  0.05139  1.0000
  O   O632      1.0  0.14297  0.33226  0.55139  1.0000
  O   O633      1.0  0.94861  0.64297  0.16774  1.0000
  O   O634      1.0  0.44861  0.14297  0.66774  1.0000
  O   O635      1.0  0.83226  0.94861  0.35703  1.0000
  O   O636      1.0  0.33226  0.44861  0.85703  1.0000
  O   O637      1.0  0.35703  0.83226  0.94861  1.0000
  O   O638      1.0  0.85703  0.33226  0.44861  1.0000
  O   O639      1.0  0.05139  0.64297  0.83226  1.0000
  O   O640      1.0  0.55139  0.14297  0.33226  1.0000
  O   O641      1.0  0.16774  0.94861  0.64297  1.0000
  O   O642      1.0  0.66774  0.44861  0.14297  1.0000
  O   O643      1.0  0.35703  0.83226  0.05139  1.0000
  O   O644      1.0  0.85703  0.33226  0.55139  1.0000
  O   O645      1.0  0.05139  0.64297  0.16774  1.0000
  O   O646      1.0  0.55139  0.14297  0.66774  1.0000
  O   O647      1.0  0.16774  0.94861  0.35703  1.0000
  O   O648      1.0  0.66774  0.44861  0.85703  1.0000
  O   O649      1.0  0.83226  0.64297  0.94861  1.0000
  O   O650      1.0  0.33226  0.14297  0.44861  1.0000
  O   O651      1.0  0.64297  0.94861  0.83226  1.0000
  O   O652      1.0  0.14297  0.44861  0.33226  1.0000
  O   O653      1.0  0.94861  0.83226  0.64297  1.0000
  O   O654      1.0  0.44861  0.33226  0.14297  1.0000
  O   O655      1.0  0.83226  0.64297  0.05139  1.0000
  O   O656      1.0  0.33226  0.14297  0.55139  1.0000
  O   O657      1.0  0.64297  0.94861  0.16774  1.0000
  O   O658      1.0  0.14297  0.44861  0.66774  1.0000
  O   O659      1.0  0.94861  0.83226  0.35703  1.0000
  O   O660      1.0  0.44861  0.33226  0.85703  1.0000
  O   O661      1.0  0.83226  0.35703  0.94861  1.0000
  O   O662      1.0  0.33226  0.85703  0.44861  1.0000
  O   O663      1.0  0.64297  0.05139  0.83226  1.0000
  O   O664      1.0  0.14297  0.55139  0.33226  1.0000
  O   O665      1.0  0.94861  0.16774  0.64297  1.0000
  O   O666      1.0  0.44861  0.66774  0.14297  1.0000
  O   O667      1.0  0.83226  0.35703  0.05139  1.0000
  O   O668      1.0  0.33226  0.85703  0.55139  1.0000
  O   O669      1.0  0.64297  0.05139  0.16774  1.0000
  O   O670      1.0  0.14297  0.55139  0.66774  1.0000
  O   O671      1.0  0.94861  0.16774  0.35703  1.0000
  O   O672      1.0  0.44861  0.66774  0.85703  1.0000
  O   O673      1.0  0.40864  0.18895  0.00000  1.0000
  O   O674      1.0  0.90864  0.68895  0.50000  1.0000
  O   O675      1.0  0.00000  0.40863  0.18895  1.0000
  O   O676      1.0  0.50000  0.90864  0.68895  1.0000
  O   O677      1.0  0.18895  0.00000  0.40864  1.0000
  O   O678      1.0  0.68895  0.50000  0.90864  1.0000
  O   O679      1.0  1.00000  0.40864  0.81105  1.0000
  O   O680      1.0  0.50000  0.90864  0.31105  1.0000
  O   O681      1.0  0.18895  1.00000  0.59136  1.0000
  O   O682      1.0  0.68895  0.50000  0.09136  1.0000
  O   O683      1.0  0.59136  0.18895  1.00000  1.0000
  O   O684      1.0  0.09136  0.68895  0.50000  1.0000
  O   O685      1.0  0.81105  0.00000  0.40864  1.0000
  O   O686      1.0  0.31105  0.50000  0.90864  1.0000
  O   O687      1.0  0.81105  1.00000  0.59136  1.0000
  O   O688      1.0  0.31105  0.50000  0.09136  1.0000
  O   O689      1.0  0.18895  0.40864  0.00000  1.0000
  O   O690      1.0  0.68895  0.90864  0.50000  1.0000
  O   O691      1.0  0.40864  0.00000  0.18895  1.0000
  O   O692      1.0  0.90863  0.50000  0.68895  1.0000
  O   O693      1.0  1.00000  0.18895  0.40863  1.0000
  O   O694      1.0  0.50000  0.68895  0.90863  1.0000
  O   O695      1.0  0.40864  0.00000  0.81105  1.0000
  O   O696      1.0  0.90864  0.50000  0.31105  1.0000
  O   O697      1.0  1.00000  0.18895  0.59136  1.0000
  O   O698      1.0  0.50000  0.68895  0.09136  1.0000
  O   O699      1.0  0.18895  0.59136  0.00000  1.0000
  O   O700      1.0  0.68895  0.09136  0.50000  1.0000
  O   O701      1.0  0.00000  0.81105  0.40864  1.0000
  O   O702      1.0  0.50000  0.31105  0.90864  1.0000
  O   O703      1.0  0.00000  0.81105  0.59137  1.0000
  O   O704      1.0  0.50000  0.31105  0.09137  1.0000
  O   O705      1.0  0.59136  0.81105  0.00000  1.0000
  O   O706      1.0  0.09136  0.31105  0.50000  1.0000
  O   O707      1.0  1.00000  0.59137  0.81105  1.0000
  O   O708      1.0  0.50000  0.09136  0.31105  1.0000
  O   O709      1.0  0.00000  0.59136  0.18895  1.0000
  O   O710      1.0  0.50000  0.09136  0.68895  1.0000
  O   O711      1.0  0.40864  0.81105  0.00000  1.0000
  O   O712      1.0  0.90863  0.31105  0.50000  1.0000
  O   O713      1.0  0.81105  0.59136  1.00000  1.0000
  O   O714      1.0  0.31105  0.09136  0.50000  1.0000
  O   O715      1.0  0.59136  1.00000  0.81105  1.0000
  O   O716      1.0  0.09136  0.50000  0.31105  1.0000
  O   O717      1.0  0.59136  1.00000  0.18895  1.0000
  O   O718      1.0  0.09136  0.50000  0.68895  1.0000
  O   O719      1.0  0.81105  0.40864  1.00000  1.0000
  O   O720      1.0  0.31105  0.90864  0.50000  1.0000
  O   O721      1.0  0.41368  0.21419  0.07113  1.0000
  O   O722      1.0  0.91368  0.71419  0.57113  1.0000
  O   O723      1.0  0.07113  0.41368  0.21419  1.0000
  O   O724      1.0  0.57113  0.91368  0.71419  1.0000
  O   O725      1.0  0.21419  0.07113  0.41368  1.0000
  O   O726      1.0  0.71419  0.57113  0.91368  1.0000
  O   O727      1.0  0.41368  0.21419  0.92887  1.0000
  O   O728      1.0  0.91368  0.71419  0.42887  1.0000
  O   O729      1.0  0.07113  0.41368  0.78581  1.0000
  O   O730      1.0  0.57113  0.91368  0.28581  1.0000
  O   O731      1.0  0.21419  0.07113  0.58632  1.0000
  O   O732      1.0  0.71419  0.57113  0.08632  1.0000
  O   O733      1.0  0.58632  0.21419  0.07113  1.0000
  O   O734      1.0  0.08632  0.71419  0.57113  1.0000
  O   O735      1.0  0.92887  0.41368  0.21419  1.0000
  O   O736      1.0  0.42887  0.91368  0.71419  1.0000
  O   O737      1.0  0.78581  0.07113  0.41368  1.0000
  O   O738      1.0  0.28581  0.57113  0.91368  1.0000
  O   O739      1.0  0.58632  0.21419  0.92887  1.0000
  O   O740      1.0  0.08632  0.71419  0.42887  1.0000
  O   O741      1.0  0.92887  0.41368  0.78581  1.0000
  O   O742      1.0  0.42887  0.91368  0.28581  1.0000
  O   O743      1.0  0.78581  0.07113  0.58632  1.0000
  O   O744      1.0  0.28581  0.57113  0.08632  1.0000
  O   O745      1.0  0.21419  0.41368  0.07113  1.0000
  O   O746      1.0  0.71419  0.91368  0.57113  1.0000
  O   O747      1.0  0.41368  0.07113  0.21419  1.0000
  O   O748      1.0  0.91368  0.57113  0.71419  1.0000
  O   O749      1.0  0.07113  0.21419  0.41368  1.0000
  O   O750      1.0  0.57113  0.71419  0.91368  1.0000
  O   O751      1.0  0.21419  0.41368  0.92887  1.0000
  O   O752      1.0  0.71419  0.91368  0.42887  1.0000
  O   O753      1.0  0.41368  0.07113  0.78581  1.0000
  O   O754      1.0  0.91368  0.57113  0.28581  1.0000
  O   O755      1.0  0.07113  0.21419  0.58632  1.0000
  O   O756      1.0  0.57113  0.71419  0.08632  1.0000
  O   O757      1.0  0.21419  0.58632  0.07113  1.0000
  O   O758      1.0  0.71419  0.08632  0.57113  1.0000
  O   O759      1.0  0.41368  0.92887  0.21419  1.0000
  O   O760      1.0  0.91368  0.42887  0.71419  1.0000
  O   O761      1.0  0.07113  0.78581  0.41368  1.0000
  O   O762      1.0  0.57113  0.28581  0.91368  1.0000
  O   O763      1.0  0.21419  0.58632  0.92887  1.0000
  O   O764      1.0  0.71419  0.08632  0.42887  1.0000
  O   O765      1.0  0.41368  0.92887  0.78581  1.0000
  O   O766      1.0  0.91368  0.42887  0.28581  1.0000
  O   O767      1.0  0.07113  0.78581  0.58632  1.0000
  O   O768      1.0  0.57113  0.28581  0.08632  1.0000
  O   O769      1.0  0.58632  0.78581  0.92887  1.0000
  O   O770      1.0  0.08632  0.28581  0.42887  1.0000
  O   O771      1.0  0.92887  0.58632  0.78581  1.0000
  O   O772      1.0  0.42887  0.08632  0.28581  1.0000
  O   O773      1.0  0.78581  0.92887  0.58632  1.0000
  O   O774      1.0  0.28581  0.42887  0.08632  1.0000
  O   O775      1.0  0.58632  0.78581  0.07113  1.0000
  O   O776      1.0  0.08632  0.28581  0.57113  1.0000
  O   O777      1.0  0.92887  0.58632  0.21419  1.0000
  O   O778      1.0  0.42887  0.08632  0.71419  1.0000
  O   O779      1.0  0.78581  0.92887  0.41368  1.0000
  O   O780      1.0  0.28581  0.42887  0.91368  1.0000
  O   O781      1.0  0.41368  0.78581  0.92887  1.0000
  O   O782      1.0  0.91368  0.28581  0.42887  1.0000
  O   O783      1.0  0.07113  0.58632  0.78581  1.0000
  O   O784      1.0  0.57113  0.08632  0.28581  1.0000
  O   O785      1.0  0.21419  0.92887  0.58632  1.0000
  O   O786      1.0  0.71419  0.42887  0.08632  1.0000
  O   O787      1.0  0.41368  0.78581  0.07113  1.0000
  O   O788      1.0  0.91368  0.28581  0.57113  1.0000
  O   O789      1.0  0.07113  0.58632  0.21419  1.0000
  O   O790      1.0  0.57113  0.08632  0.71419  1.0000
  O   O791      1.0  0.21419  0.92887  0.41368  1.0000
  O   O792      1.0  0.71419  0.42887  0.91368  1.0000
  O   O793      1.0  0.78581  0.58632  0.92887  1.0000
  O   O794      1.0  0.28581  0.08632  0.42887  1.0000
  O   O795      1.0  0.58632  0.92887  0.78581  1.0000
  O   O796      1.0  0.08632  0.42887  0.28581  1.0000
  O   O797      1.0  0.92887  0.78581  0.58632  1.0000
  O   O798      1.0  0.42887  0.28581  0.08632  1.0000
  O   O799      1.0  0.78581  0.58632  0.07113  1.0000
  O   O800      1.0  0.28581  0.08632  0.57113  1.0000
  O   O801      1.0  0.58632  0.92887  0.21419  1.0000
  O   O802      1.0  0.08632  0.42887  0.71419  1.0000
  O   O803      1.0  0.92887  0.78581  0.41368  1.0000
  O   O804      1.0  0.42887  0.28581  0.91368  1.0000
  O   O805      1.0  0.78581  0.41368  0.92887  1.0000
  O   O806      1.0  0.28581  0.91368  0.42887  1.0000
  O   O807      1.0  0.58632  0.07113  0.78581  1.0000
  O   O808      1.0  0.08632  0.57113  0.28581  1.0000
  O   O809      1.0  0.92887  0.21419  0.58632  1.0000
  O   O810      1.0  0.42887  0.71419  0.08632  1.0000
  O   O811      1.0  0.78581  0.41368  0.07113  1.0000
  O   O812      1.0  0.28581  0.91368  0.57113  1.0000
  O   O813      1.0  0.58632  0.07113  0.21419  1.0000
  O   O814      1.0  0.08632  0.57113  0.71419  1.0000
  O   O815      1.0  0.92887  0.21419  0.41368  1.0000
  O   O816      1.0  0.42887  0.71419  0.91368  1.0000
  O   O817      1.0  0.28602  0.14273  0.05681  1.0000
  O   O818      1.0  0.78602  0.64273  0.55681  1.0000
  O   O819      1.0  0.05681  0.28602  0.14273  1.0000
  O   O820      1.0  0.55681  0.78602  0.64273  1.0000
  O   O821      1.0  0.14273  0.05681  0.28602  1.0000
  O   O822      1.0  0.64273  0.55682  0.78602  1.0000
  O   O823      1.0  0.28602  0.14273  0.94319  1.0000
  O   O824      1.0  0.78602  0.64273  0.44319  1.0000
  O   O825      1.0  0.05681  0.28602  0.85727  1.0000
  O   O826      1.0  0.55681  0.78602  0.35727  1.0000
  O   O827      1.0  0.14273  0.05681  0.71398  1.0000
  O   O828      1.0  0.64273  0.55681  0.21398  1.0000
  O   O829      1.0  0.71398  0.14273  0.05681  1.0000
  O   O830      1.0  0.21398  0.64273  0.55681  1.0000
  O   O831      1.0  0.94319  0.28602  0.14273  1.0000
  O   O832      1.0  0.44319  0.78602  0.64273  1.0000
  O   O833      1.0  0.85727  0.05681  0.28602  1.0000
  O   O834      1.0  0.35727  0.55681  0.78602  1.0000
  O   O835      1.0  0.71398  0.14273  0.94319  1.0000
  O   O836      1.0  0.21398  0.64273  0.44319  1.0000
  O   O837      1.0  0.94319  0.28602  0.85727  1.0000
  O   O838      1.0  0.44319  0.78602  0.35727  1.0000
  O   O839      1.0  0.85727  0.05681  0.71398  1.0000
  O   O840      1.0  0.35727  0.55681  0.21398  1.0000
  O   O841      1.0  0.14273  0.28602  0.05681  1.0000
  O   O842      1.0  0.64273  0.78602  0.55681  1.0000
  O   O843      1.0  0.28602  0.05681  0.14273  1.0000
  O   O844      1.0  0.78602  0.55681  0.64273  1.0000
  O   O845      1.0  0.05681  0.14273  0.28602  1.0000
  O   O846      1.0  0.55681  0.64273  0.78602  1.0000
  O   O847      1.0  0.14273  0.28602  0.94319  1.0000
  O   O848      1.0  0.64273  0.78602  0.44319  1.0000
  O   O849      1.0  0.28602  0.05681  0.85727  1.0000
  O   O850      1.0  0.78602  0.55681  0.35727  1.0000
  O   O851      1.0  0.05681  0.14273  0.71398  1.0000
  O   O852      1.0  0.55681  0.64273  0.21398  1.0000
  O   O853      1.0  0.14273  0.71398  0.05681  1.0000
  O   O854      1.0  0.64273  0.21398  0.55681  1.0000
  O   O855      1.0  0.28602  0.94319  0.14273  1.0000
  O   O856      1.0  0.78602  0.44319  0.64273  1.0000
  O   O857      1.0  0.05681  0.85727  0.28602  1.0000
  O   O858      1.0  0.55681  0.35727  0.78602  1.0000
  O   O859      1.0  0.14273  0.71398  0.94319  1.0000
  O   O860      1.0  0.64273  0.21398  0.44319  1.0000
  O   O861      1.0  0.28602  0.94319  0.85727  1.0000
  O   O862      1.0  0.78602  0.44319  0.35727  1.0000
  O   O863      1.0  0.05681  0.85727  0.71398  1.0000
  O   O864      1.0  0.55681  0.35727  0.21398  1.0000
  O   O865      1.0  0.71398  0.85727  0.94319  1.0000
  O   O866      1.0  0.21398  0.35727  0.44319  1.0000
  O   O867      1.0  0.94319  0.71398  0.85727  1.0000
  O   O868      1.0  0.44319  0.21398  0.35727  1.0000
  O   O869      1.0  0.85727  0.94319  0.71398  1.0000
  O   O870      1.0  0.35727  0.44318  0.21398  1.0000
  O   O871      1.0  0.71398  0.85727  0.05681  1.0000
  O   O872      1.0  0.21398  0.35727  0.55681  1.0000
  O   O873      1.0  0.94319  0.71398  0.14273  1.0000
  O   O874      1.0  0.44319  0.21398  0.64273  1.0000
  O   O875      1.0  0.85727  0.94319  0.28602  1.0000
  O   O876      1.0  0.35727  0.44319  0.78602  1.0000
  O   O877      1.0  0.28602  0.85727  0.94319  1.0000
  O   O878      1.0  0.78602  0.35727  0.44319  1.0000
  O   O879      1.0  0.05681  0.71398  0.85727  1.0000
  O   O880      1.0  0.55681  0.21398  0.35727  1.0000
  O   O881      1.0  0.14273  0.94319  0.71398  1.0000
  O   O882      1.0  0.64273  0.44319  0.21398  1.0000
  O   O883      1.0  0.28602  0.85727  0.05681  1.0000
  O   O884      1.0  0.78602  0.35727  0.55681  1.0000
  O   O885      1.0  0.05681  0.71398  0.14273  1.0000
  O   O886      1.0  0.55681  0.21398  0.64273  1.0000
  O   O887      1.0  0.14273  0.94319  0.28602  1.0000
  O   O888      1.0  0.64273  0.44319  0.78602  1.0000
  O   O889      1.0  0.85727  0.71398  0.94319  1.0000
  O   O890      1.0  0.35727  0.21398  0.44319  1.0000
  O   O891      1.0  0.71398  0.94319  0.85727  1.0000
  O   O892      1.0  0.21398  0.44319  0.35727  1.0000
  O   O893      1.0  0.94319  0.85727  0.71398  1.0000
  O   O894      1.0  0.44319  0.35727  0.21398  1.0000
  O   O895      1.0  0.85727  0.71398  0.05681  1.0000
  O   O896      1.0  0.35727  0.21398  0.55681  1.0000
  O   O897      1.0  0.71398  0.94319  0.14273  1.0000
  O   O898      1.0  0.21398  0.44319  0.64273  1.0000
  O   O899      1.0  0.94319  0.85727  0.28602  1.0000
  O   O900      1.0  0.44319  0.35727  0.78602  1.0000
  O   O901      1.0  0.85727  0.28602  0.94319  1.0000
  O   O902      1.0  0.35727  0.78602  0.44319  1.0000
  O   O903      1.0  0.71398  0.05681  0.85727  1.0000
  O   O904      1.0  0.21398  0.55681  0.35727  1.0000
  O   O905      1.0  0.94319  0.14273  0.71398  1.0000
  O   O906      1.0  0.44319  0.64273  0.21398  1.0000
  O   O907      1.0  0.85727  0.28602  0.05681  1.0000
  O   O908      1.0  0.35727  0.78602  0.55681  1.0000
  O   O909      1.0  0.71398  0.05681  0.14273  1.0000
  O   O910      1.0  0.21398  0.55681  0.64273  1.0000
  O   O911      1.0  0.94319  0.14273  0.28602  1.0000
  O   O912      1.0  0.44319  0.64273  0.78602  1.0000
  O   O913      1.0  0.30552  0.18922  1.00000  1.0000
  O   O914      1.0  0.80552  0.68922  0.50000  1.0000
  O   O915      1.0  0.00000  0.30552  0.18922  1.0000
  O   O916      1.0  0.50000  0.80552  0.68922  1.0000
  O   O917      1.0  0.18922  1.00000  0.30552  1.0000
  O   O918      1.0  0.68922  0.50000  0.80552  1.0000
  O   O919      1.0  1.00000  0.30552  0.81078  1.0000
  O   O920      1.0  0.50000  0.80552  0.31078  1.0000
  O   O921      1.0  0.18922  1.00000  0.69448  1.0000
  O   O922      1.0  0.68922  0.50000  0.19448  1.0000
  O   O923      1.0  0.69448  0.18922  1.00000  1.0000
  O   O924      1.0  0.19448  0.68922  0.50000  1.0000
  O   O925      1.0  0.81078  0.00000  0.30552  1.0000
  O   O926      1.0  0.31078  0.50000  0.80552  1.0000
  O   O927      1.0  0.81078  0.00000  0.69448  1.0000
  O   O928      1.0  0.31078  0.50000  0.19448  1.0000
  O   O929      1.0  0.18922  0.30552  0.00000  1.0000
  O   O930      1.0  0.68922  0.80552  0.50000  1.0000
  O   O931      1.0  0.30552  0.00000  0.18922  1.0000
  O   O932      1.0  0.80552  0.50000  0.68922  1.0000
  O   O933      1.0  1.00000  0.18922  0.30552  1.0000
  O   O934      1.0  0.50000  0.68922  0.80552  1.0000
  O   O935      1.0  0.30552  0.00000  0.81078  1.0000
  O   O936      1.0  0.80552  0.50000  0.31078  1.0000
  O   O937      1.0  1.00000  0.18922  0.69448  1.0000
  O   O938      1.0  0.50000  0.68922  0.19448  1.0000
  O   O939      1.0  0.18922  0.69448  0.00000  1.0000
  O   O940      1.0  0.68922  0.19448  0.50000  1.0000
  O   O941      1.0  0.00000  0.81078  0.30552  1.0000
  O   O942      1.0  0.50000  0.31078  0.80552  1.0000
  O   O943      1.0  0.00000  0.81078  0.69448  1.0000
  O   O944      1.0  0.50000  0.31078  0.19448  1.0000
  O   O945      1.0  0.69448  0.81078  0.00000  1.0000
  O   O946      1.0  0.19448  0.31078  0.50000  1.0000
  O   O947      1.0  1.00000  0.69448  0.81078  1.0000
  O   O948      1.0  0.50000  0.19448  0.31078  1.0000
  O   O949      1.0  0.00000  0.69448  0.18922  1.0000
  O   O950      1.0  0.50000  0.19448  0.68922  1.0000
  O   O951      1.0  0.30552  0.81078  0.00000  1.0000
  O   O952      1.0  0.80552  0.31078  0.50000  1.0000
  O   O953      1.0  0.81078  0.69448  1.00000  1.0000
  O   O954      1.0  0.31078  0.19448  0.50000  1.0000
  O   O955      1.0  0.69448  1.00000  0.81078  1.0000
  O   O956      1.0  0.19448  0.50000  0.31078  1.0000
  O   O957      1.0  0.69448  1.00000  0.18922  1.0000
  O   O958      1.0  0.19448  0.50000  0.68922  1.0000
  O   O959      1.0  0.81078  0.30552  1.00000  1.0000
  O   O960      1.0  0.31078  0.80552  0.50000  1.0000
  O   O961      1.0  0.21453  0.11909  0.05080  1.0000
  O   O962      1.0  0.71453  0.61909  0.55080  1.0000
  O   O963      1.0  0.05080  0.21453  0.11909  1.0000
  O   O964      1.0  0.55080  0.71453  0.61909  1.0000
  O   O965      1.0  0.11909  0.05080  0.21453  1.0000
  O   O966      1.0  0.61909  0.55080  0.71453  1.0000
  O   O967      1.0  0.21453  0.11909  0.94920  1.0000
  O   O968      1.0  0.71453  0.61909  0.44920  1.0000
  O   O969      1.0  0.05080  0.21453  0.88091  1.0000
  O   O970      1.0  0.55080  0.71453  0.38091  1.0000
  O   O971      1.0  0.11909  0.05080  0.78547  1.0000
  O   O972      1.0  0.61909  0.55080  0.28547  1.0000
  O   O973      1.0  0.78547  0.11909  0.05080  1.0000
  O   O974      1.0  0.28547  0.61909  0.55080  1.0000
  O   O975      1.0  0.94920  0.21453  0.11909  1.0000
  O   O976      1.0  0.44920  0.71453  0.61909  1.0000
  O   O977      1.0  0.88091  0.05080  0.21453  1.0000
  O   O978      1.0  0.38091  0.55080  0.71453  1.0000
  O   O979      1.0  0.78547  0.11909  0.94920  1.0000
  O   O980      1.0  0.28547  0.61909  0.44920  1.0000
  O   O981      1.0  0.94920  0.21453  0.88091  1.0000
  O   O982      1.0  0.44920  0.71453  0.38091  1.0000
  O   O983      1.0  0.88091  0.05080  0.78547  1.0000
  O   O984      1.0  0.38091  0.55080  0.28547  1.0000
  O   O985      1.0  0.11909  0.21453  0.05080  1.0000
  O   O986      1.0  0.61909  0.71453  0.55080  1.0000
  O   O987      1.0  0.21453  0.05080  0.11909  1.0000
  O   O988      1.0  0.71453  0.55080  0.61909  1.0000
  O   O989      1.0  0.05080  0.11909  0.21453  1.0000
  O   O990      1.0  0.55080  0.61909  0.71453  1.0000
  O   O991      1.0  0.11909  0.21453  0.94920  1.0000
  O   O992      1.0  0.61909  0.71453  0.44920  1.0000
  O   O993      1.0  0.21453  0.05080  0.88091  1.0000
  O   O994      1.0  0.71453  0.55080  0.38091  1.0000
  O   O995      1.0  0.05080  0.11909  0.78547  1.0000
  O   O996      1.0  0.55080  0.61909  0.28547  1.0000
  O   O997      1.0  0.11909  0.78547  0.05080  1.0000
  O   O998      1.0  0.61909  0.28547  0.55080  1.0000
  O   O999      1.0  0.21453  0.94920  0.11909  1.0000
  O   O1000     1.0  0.71453  0.44920  0.61909  1.0000
  O   O1001     1.0  0.05080  0.88091  0.21453  1.0000
  O   O1002     1.0  0.55080  0.38091  0.71453  1.0000
  O   O1003     1.0  0.11909  0.78547  0.94920  1.0000
  O   O1004     1.0  0.61909  0.28547  0.44920  1.0000
  O   O1005     1.0  0.21453  0.94920  0.88091  1.0000
  O   O1006     1.0  0.71453  0.44920  0.38091  1.0000
  O   O1007     1.0  0.05080  0.88091  0.78547  1.0000
  O   O1008     1.0  0.55080  0.38091  0.28547  1.0000
  O   O1009     1.0  0.78547  0.88091  0.94920  1.0000
  O   O1010     1.0  0.28547  0.38091  0.44920  1.0000
  O   O1011     1.0  0.94920  0.78547  0.88091  1.0000
  O   O1012     1.0  0.44920  0.28547  0.38091  1.0000
  O   O1013     1.0  0.88091  0.94920  0.78547  1.0000
  O   O1014     1.0  0.38091  0.44920  0.28547  1.0000
  O   O1015     1.0  0.78547  0.88091  0.05080  1.0000
  O   O1016     1.0  0.28547  0.38091  0.55080  1.0000
  O   O1017     1.0  0.94920  0.78547  0.11909  1.0000
  O   O1018     1.0  0.44920  0.28547  0.61909  1.0000
  O   O1019     1.0  0.88091  0.94920  0.21453  1.0000
  O   O1020     1.0  0.38091  0.44920  0.71453  1.0000
  O   O1021     1.0  0.21453  0.88091  0.94920  1.0000
  O   O1022     1.0  0.71453  0.38091  0.44920  1.0000
  O   O1023     1.0  0.05080  0.78547  0.88091  1.0000
  O   O1024     1.0  0.55080  0.28547  0.38091  1.0000
  O   O1025     1.0  0.11909  0.94920  0.78547  1.0000
  O   O1026     1.0  0.61909  0.44920  0.28547  1.0000
  O   O1027     1.0  0.21453  0.88091  0.05080  1.0000
  O   O1028     1.0  0.71453  0.38091  0.55080  1.0000
  O   O1029     1.0  0.05080  0.78547  0.11909  1.0000
  O   O1030     1.0  0.55080  0.28547  0.61909  1.0000
  O   O1031     1.0  0.11909  0.94920  0.21453  1.0000
  O   O1032     1.0  0.61909  0.44920  0.71453  1.0000
  O   O1033     1.0  0.88091  0.78547  0.94920  1.0000
  O   O1034     1.0  0.38091  0.28547  0.44920  1.0000
  O   O1035     1.0  0.78547  0.94920  0.88091  1.0000
  O   O1036     1.0  0.28547  0.44920  0.38091  1.0000
  O   O1037     1.0  0.94920  0.88091  0.78547  1.0000
  O   O1038     1.0  0.44920  0.38091  0.28547  1.0000
  O   O1039     1.0  0.88091  0.78547  0.05080  1.0000
  O   O1040     1.0  0.38091  0.28547  0.55080  1.0000
  O   O1041     1.0  0.78547  0.94920  0.11909  1.0000
  O   O1042     1.0  0.28547  0.44920  0.61909  1.0000
  O   O1043     1.0  0.94920  0.88091  0.21453  1.0000
  O   O1044     1.0  0.44920  0.38091  0.71453  1.0000
  O   O1045     1.0  0.88091  0.21453  0.94920  1.0000
  O   O1046     1.0  0.38091  0.71453  0.44920  1.0000
  O   O1047     1.0  0.78547  0.05080  0.88091  1.0000
  O   O1048     1.0  0.28547  0.55080  0.38091  1.0000
  O   O1049     1.0  0.94920  0.11909  0.78547  1.0000
  O   O1050     1.0  0.44920  0.61909  0.28547  1.0000
  O   O1051     1.0  0.88091  0.21453  0.05080  1.0000
  O   O1052     1.0  0.38091  0.71453  0.55080  1.0000
  O   O1053     1.0  0.78547  0.05080  0.11909  1.0000
  O   O1054     1.0  0.28547  0.55080  0.61909  1.0000
  O   O1055     1.0  0.94920  0.11909  0.21453  1.0000
  O   O1056     1.0  0.44920  0.61909  0.71453  1.0000
  O   O1057     1.0  0.26610  0.09649  0.00000  1.0000
  O   O1058     1.0  0.76610  0.59649  0.50000  1.0000
  O   O1059     1.0  1.00000  0.26611  0.09649  1.0000
  O   O1060     1.0  0.50000  0.76611  0.59649  1.0000
  O   O1061     1.0  0.09649  0.00000  0.26610  1.0000
  O   O1062     1.0  0.59649  0.50000  0.76611  1.0000
  O   O1063     1.0  0.00000  0.26611  0.90351  1.0000
  O   O1064     1.0  0.50000  0.76611  0.40351  1.0000
  O   O1065     1.0  0.09649  0.00000  0.73390  1.0000
  O   O1066     1.0  0.59649  0.50000  0.23390  1.0000
  O   O1067     1.0  0.73390  0.09649  0.00000  1.0000
  O   O1068     1.0  0.23390  0.59649  0.50000  1.0000
  O   O1069     1.0  0.90351  1.00000  0.26610  1.0000
  O   O1070     1.0  0.40351  0.50000  0.76610  1.0000
  O   O1071     1.0  0.90351  1.00000  0.73390  1.0000
  O   O1072     1.0  0.40351  0.50000  0.23390  1.0000
  O   O1073     1.0  0.09649  0.26610  1.00000  1.0000
  O   O1074     1.0  0.59649  0.76610  0.50000  1.0000
  O   O1075     1.0  0.26610  0.00000  0.09649  1.0000
  O   O1076     1.0  0.76610  0.50000  0.59649  1.0000
  O   O1077     1.0  0.00000  0.09649  0.26611  1.0000
  O   O1078     1.0  0.50000  0.59649  0.76611  1.0000
  O   O1079     1.0  0.26610  1.00000  0.90351  1.0000
  O   O1080     1.0  0.76610  0.50000  0.40351  1.0000
  O   O1081     1.0  0.00000  0.09649  0.73389  1.0000
  O   O1082     1.0  0.50000  0.59649  0.23389  1.0000
  O   O1083     1.0  0.09649  0.73390  1.00000  1.0000
  O   O1084     1.0  0.59649  0.23390  0.50000  1.0000
  O   O1085     1.0  1.00000  0.90351  0.26611  1.0000
  O   O1086     1.0  0.50000  0.40351  0.76611  1.0000
  O   O1087     1.0  1.00000  0.90351  0.73389  1.0000
  O   O1088     1.0  0.50000  0.40351  0.23389  1.0000
  O   O1089     1.0  0.73390  0.90351  1.00000  1.0000
  O   O1090     1.0  0.23390  0.40351  0.50000  1.0000
  O   O1091     1.0  0.00000  0.73389  0.90351  1.0000
  O   O1092     1.0  0.50000  0.23389  0.40351  1.0000
  O   O1093     1.0  1.00000  0.73389  0.09649  1.0000
  O   O1094     1.0  0.50000  0.23389  0.59649  1.0000
  O   O1095     1.0  0.26610  0.90351  1.00000  1.0000
  O   O1096     1.0  0.76610  0.40351  0.50000  1.0000
  O   O1097     1.0  0.90351  0.73390  0.00000  1.0000
  O   O1098     1.0  0.40351  0.23390  0.50000  1.0000
  O   O1099     1.0  0.73390  1.00000  0.90351  1.0000
  O   O1100     1.0  0.23389  0.50000  0.40351  1.0000
  O   O1101     1.0  0.73390  0.00000  0.09649  1.0000
  O   O1102     1.0  0.23390  0.50000  0.59649  1.0000
  O   O1103     1.0  0.90351  0.26610  0.00000  1.0000
  O   O1104     1.0  0.40351  0.76610  0.50000  1.0000
  O   O1105     1.0  0.26953  0.07053  0.07053  1.0000
  O   O1106     1.0  0.76953  0.57053  0.57053  1.0000
  O   O1107     1.0  0.07053  0.26953  0.07053  1.0000
  O   O1108     1.0  0.57053  0.76953  0.57053  1.0000
  O   O1109     1.0  0.07053  0.07053  0.26953  1.0000
  O   O1110     1.0  0.57053  0.57053  0.76953  1.0000
  O   O1111     1.0  0.26953  0.07053  0.92947  1.0000
  O   O1112     1.0  0.76953  0.57053  0.42947  1.0000
  O   O1113     1.0  0.07053  0.26953  0.92947  1.0000
  O   O1114     1.0  0.57053  0.76953  0.42947  1.0000
  O   O1115     1.0  0.07053  0.07053  0.73047  1.0000
  O   O1116     1.0  0.57053  0.57053  0.23047  1.0000
  O   O1117     1.0  0.73047  0.07053  0.07053  1.0000
  O   O1118     1.0  0.23047  0.57053  0.57053  1.0000
  O   O1119     1.0  0.92947  0.26953  0.07053  1.0000
  O   O1120     1.0  0.42947  0.76953  0.57053  1.0000
  O   O1121     1.0  0.92947  0.07053  0.26953  1.0000
  O   O1122     1.0  0.42947  0.57053  0.76953  1.0000
  O   O1123     1.0  0.73047  0.07053  0.92947  1.0000
  O   O1124     1.0  0.23047  0.57053  0.42947  1.0000
  O   O1125     1.0  0.92947  0.26953  0.92947  1.0000
  O   O1126     1.0  0.42947  0.76953  0.42947  1.0000
  O   O1127     1.0  0.92947  0.07053  0.73047  1.0000
  O   O1128     1.0  0.42947  0.57053  0.23047  1.0000
  O   O1129     1.0  0.07053  0.73047  0.07053  1.0000
  O   O1130     1.0  0.57053  0.23047  0.57053  1.0000
  O   O1131     1.0  0.26953  0.92947  0.07053  1.0000
  O   O1132     1.0  0.76953  0.42947  0.57053  1.0000
  O   O1133     1.0  0.07053  0.92947  0.26953  1.0000
  O   O1134     1.0  0.57053  0.42947  0.76953  1.0000
  O   O1135     1.0  0.07053  0.73047  0.92947  1.0000
  O   O1136     1.0  0.57053  0.23047  0.42947  1.0000
  O   O1137     1.0  0.26953  0.92947  0.92947  1.0000
  O   O1138     1.0  0.76953  0.42947  0.42947  1.0000
  O   O1139     1.0  0.07053  0.92947  0.73047  1.0000
  O   O1140     1.0  0.57053  0.42947  0.23047  1.0000
  O   O1141     1.0  0.73047  0.92947  0.92947  1.0000
  O   O1142     1.0  0.23047  0.42947  0.42947  1.0000
  O   O1143     1.0  0.92947  0.73047  0.92947  1.0000
  O   O1144     1.0  0.42947  0.23047  0.42947  1.0000
  O   O1145     1.0  0.92947  0.92947  0.73047  1.0000
  O   O1146     1.0  0.42947  0.42947  0.23047  1.0000
  O   O1147     1.0  0.73047  0.92947  0.07053  1.0000
  O   O1148     1.0  0.23047  0.42947  0.57053  1.0000
  O   O1149     1.0  0.92947  0.73047  0.07053  1.0000
  O   O1150     1.0  0.42947  0.23047  0.57053  1.0000
  O   O1151     1.0  0.92947  0.92947  0.26953  1.0000
  O   O1152     1.0  0.42947  0.42947  0.76953  1.0000
  O   O1153     1.0  0.16370  0.09511  1.00000  1.0000
  O   O1154     1.0  0.66370  0.59511  0.50000  1.0000
  O   O1155     1.0  0.00000  0.16370  0.09511  1.0000
  O   O1156     1.0  0.50000  0.66370  0.59511  1.0000
  O   O1157     1.0  0.09511  1.00000  0.16370  1.0000
  O   O1158     1.0  0.59511  0.50000  0.66370  1.0000
  O   O1159     1.0  1.00000  0.16370  0.90489  1.0000
  O   O1160     1.0  0.50000  0.66370  0.40489  1.0000
  O   O1161     1.0  0.09511  0.00000  0.83630  1.0000
  O   O1162     1.0  0.59511  0.50000  0.33630  1.0000
  O   O1163     1.0  0.83630  0.09511  1.00000  1.0000
  O   O1164     1.0  0.33630  0.59511  0.50000  1.0000
  O   O1165     1.0  0.90489  1.00000  0.16370  1.0000
  O   O1166     1.0  0.40489  0.50000  0.66370  1.0000
  O   O1167     1.0  0.90489  0.00000  0.83630  1.0000
  O   O1168     1.0  0.40489  0.50000  0.33630  1.0000
  O   O1169     1.0  0.09511  0.16370  1.00000  1.0000
  O   O1170     1.0  0.59511  0.66370  0.50000  1.0000
  O   O1171     1.0  0.16370  1.00000  0.09511  1.0000
  O   O1172     1.0  0.66370  0.50000  0.59511  1.0000
  O   O1173     1.0  0.00000  0.09511  0.16370  1.0000
  O   O1174     1.0  0.50000  0.59511  0.66370  1.0000
  O   O1175     1.0  0.16370  0.00000  0.90489  1.0000
  O   O1176     1.0  0.66370  0.50000  0.40489  1.0000
  O   O1177     1.0  1.00000  0.09511  0.83630  1.0000
  O   O1178     1.0  0.50000  0.59511  0.33630  1.0000
  O   O1179     1.0  0.09511  0.83630  0.00000  1.0000
  O   O1180     1.0  0.59511  0.33630  0.50000  1.0000
  O   O1181     1.0  0.00000  0.90489  0.16370  1.0000
  O   O1182     1.0  0.50000  0.40489  0.66370  1.0000
  O   O1183     1.0  1.00000  0.90489  0.83630  1.0000
  O   O1184     1.0  0.50000  0.40489  0.33630  1.0000
  O   O1185     1.0  0.83630  0.90489  0.00000  1.0000
  O   O1186     1.0  0.33630  0.40489  0.50000  1.0000
  O   O1187     1.0  0.00000  0.83630  0.90489  1.0000
  O   O1188     1.0  0.50000  0.33630  0.40489  1.0000
  O   O1189     1.0  0.00000  0.83630  0.09511  1.0000
  O   O1190     1.0  0.50000  0.33630  0.59511  1.0000
  O   O1191     1.0  0.16370  0.90489  0.00000  1.0000
  O   O1192     1.0  0.66370  0.40489  0.50000  1.0000
  O   O1193     1.0  0.90489  0.83630  0.00000  1.0000
  O   O1194     1.0  0.40489  0.33630  0.50000  1.0000
  O   O1195     1.0  0.83630  0.00000  0.90489  1.0000
  O   O1196     1.0  0.33630  0.50000  0.40489  1.0000
  O   O1197     1.0  0.83630  1.00000  0.09511  1.0000
  O   O1198     1.0  0.33630  0.50000  0.59511  1.0000
  O   O1199     1.0  0.90489  0.16370  1.00000  1.0000
  O   O1200     1.0  0.40489  0.66370  0.50000  1.0000
  O   O1201     1.0  0.15908  0.07124  0.07124  1.0000
  O   O1202     1.0  0.65908  0.57124  0.57124  1.0000
  O   O1203     1.0  0.07124  0.15908  0.07124  1.0000
  O   O1204     1.0  0.57124  0.65908  0.57124  1.0000
  O   O1205     1.0  0.07124  0.07124  0.15908  1.0000
  O   O1206     1.0  0.57124  0.57124  0.65908  1.0000
  O   O1207     1.0  0.15908  0.07124  0.92876  1.0000
  O   O1208     1.0  0.65908  0.57124  0.42876  1.0000
  O   O1209     1.0  0.07124  0.15908  0.92876  1.0000
  O   O1210     1.0  0.57124  0.65908  0.42876  1.0000
  O   O1211     1.0  0.07124  0.07124  0.84092  1.0000
  O   O1212     1.0  0.57124  0.57124  0.34092  1.0000
  O   O1213     1.0  0.84092  0.07124  0.07124  1.0000
  O   O1214     1.0  0.34092  0.57124  0.57124  1.0000
  O   O1215     1.0  0.92876  0.15908  0.07124  1.0000
  O   O1216     1.0  0.42876  0.65908  0.57124  1.0000
  O   O1217     1.0  0.92876  0.07124  0.15908  1.0000
  O   O1218     1.0  0.42875  0.57124  0.65908  1.0000
  O   O1219     1.0  0.84092  0.07125  0.92875  1.0000
  O   O1220     1.0  0.34092  0.57125  0.42876  1.0000
  O   O1221     1.0  0.92875  0.15908  0.92875  1.0000
  O   O1222     1.0  0.42875  0.65908  0.42875  1.0000
  O   O1223     1.0  0.92875  0.07125  0.84092  1.0000
  O   O1224     1.0  0.42875  0.57125  0.34092  1.0000
  O   O1225     1.0  0.07125  0.84092  0.07125  1.0000
  O   O1226     1.0  0.57125  0.34092  0.57125  1.0000
  O   O1227     1.0  0.15908  0.92875  0.07125  1.0000
  O   O1228     1.0  0.65908  0.42875  0.57125  1.0000
  O   O1229     1.0  0.07125  0.92875  0.15908  1.0000
  O   O1230     1.0  0.57125  0.42875  0.65908  1.0000
  O   O1231     1.0  0.07124  0.84092  0.92876  1.0000
  O   O1232     1.0  0.57124  0.34092  0.42876  1.0000
  O   O1233     1.0  0.15908  0.92876  0.92876  1.0000
  O   O1234     1.0  0.65908  0.42876  0.42876  1.0000
  O   O1235     1.0  0.07125  0.92876  0.84092  1.0000
  O   O1236     1.0  0.57125  0.42876  0.34092  1.0000
  O   O1237     1.0  0.84092  0.92876  0.92876  1.0000
  O   O1238     1.0  0.34092  0.42876  0.42876  1.0000
  O   O1239     1.0  0.92876  0.84092  0.92876  1.0000
  O   O1240     1.0  0.42876  0.34092  0.42876  1.0000
  O   O1241     1.0  0.92876  0.92876  0.84092  1.0000
  O   O1242     1.0  0.42876  0.42876  0.34092  1.0000
  O   O1243     1.0  0.84092  0.92876  0.07124  1.0000
  O   O1244     1.0  0.34092  0.42876  0.57124  1.0000
  O   O1245     1.0  0.92876  0.84092  0.07124  1.0000
  O   O1246     1.0  0.42876  0.34092  0.57124  1.0000
  O   O1247     1.0  0.92876  0.92876  0.15908  1.0000
  O   O1248     1.0  0.42876  0.42876  0.65908  1.0000
  O   O1249     1.0  0.14338  0.14338  0.05508  1.0000
  O   O1250     1.0  0.64338  0.64338  0.55508  1.0000
  O   O1251     1.0  0.05508  0.14338  0.14338  1.0000
  O   O1252     1.0  0.55508  0.64338  0.64338  1.0000
  O   O1253     1.0  0.14338  0.05508  0.14338  1.0000
  O   O1254     1.0  0.64338  0.55508  0.64338  1.0000
  O   O1255     1.0  0.14338  0.14338  0.94492  1.0000
  O   O1256     1.0  0.64338  0.64338  0.44492  1.0000
  O   O1257     1.0  0.05508  0.14338  0.85662  1.0000
  O   O1258     1.0  0.55508  0.64338  0.35662  1.0000
  O   O1259     1.0  0.14338  0.05508  0.85662  1.0000
  O   O1260     1.0  0.64338  0.55508  0.35662  1.0000
  O   O1261     1.0  0.85662  0.14338  0.05508  1.0000
  O   O1262     1.0  0.35662  0.64338  0.55508  1.0000
  O   O1263     1.0  0.94492  0.14338  0.14338  1.0000
  O   O1264     1.0  0.44492  0.64338  0.64338  1.0000
  O   O1265     1.0  0.85662  0.05508  0.14338  1.0000
  O   O1266     1.0  0.35662  0.55508  0.64338  1.0000
  O   O1267     1.0  0.85662  0.14338  0.94492  1.0000
  O   O1268     1.0  0.35662  0.64338  0.44492  1.0000
  O   O1269     1.0  0.94492  0.14338  0.85662  1.0000
  O   O1270     1.0  0.44492  0.64338  0.35662  1.0000
  O   O1271     1.0  0.85662  0.05508  0.85662  1.0000
  O   O1272     1.0  0.35662  0.55508  0.35662  1.0000
  O   O1273     1.0  0.14338  0.85662  0.05508  1.0000
  O   O1274     1.0  0.64338  0.35662  0.55508  1.0000
  O   O1275     1.0  0.14338  0.94492  0.14338  1.0000
  O   O1276     1.0  0.64338  0.44492  0.64338  1.0000
  O   O1277     1.0  0.05508  0.85662  0.14338  1.0000
  O   O1278     1.0  0.55508  0.35662  0.64338  1.0000
  O   O1279     1.0  0.14338  0.85662  0.94492  1.0000
  O   O1280     1.0  0.64338  0.35662  0.44492  1.0000
  O   O1281     1.0  0.14338  0.94492  0.85662  1.0000
  O   O1282     1.0  0.64338  0.44492  0.35662  1.0000
  O   O1283     1.0  0.05508  0.85662  0.85662  1.0000
  O   O1284     1.0  0.55508  0.35662  0.35662  1.0000
  O   O1285     1.0  0.85662  0.85662  0.94492  1.0000
  O   O1286     1.0  0.35662  0.35662  0.44492  1.0000
  O   O1287     1.0  0.94492  0.85662  0.85662  1.0000
  O   O1288     1.0  0.44492  0.35662  0.35662  1.0000
  O   O1289     1.0  0.85662  0.94492  0.85662  1.0000
  O   O1290     1.0  0.35662  0.44492  0.35662  1.0000
  O   O1291     1.0  0.85662  0.85662  0.05508  1.0000
  O   O1292     1.0  0.35662  0.35662  0.55508  1.0000
  O   O1293     1.0  0.94492  0.85662  0.14338  1.0000
  O   O1294     1.0  0.44492  0.35662  0.64338  1.0000
  O   O1295     1.0  0.85662  0.94492  0.14338  1.0000
  O   O1296     1.0  0.35662  0.44492  0.64338  1.0000
  O   O1297     1.0  0.30224  0.21398  0.21398  1.0000
  O   O1298     1.0  0.80224  0.71398  0.71398  1.0000
  O   O1299     1.0  0.21398  0.30223  0.21398  1.0000
  O   O1300     1.0  0.71398  0.80223  0.71398  1.0000
  O   O1301     1.0  0.21398  0.21398  0.30223  1.0000
  O   O1302     1.0  0.71398  0.71398  0.80223  1.0000
  O   O1303     1.0  0.30224  0.21398  0.78602  1.0000
  O   O1304     1.0  0.80224  0.71398  0.28602  1.0000
  O   O1305     1.0  0.21398  0.30223  0.78602  1.0000
  O   O1306     1.0  0.71398  0.80224  0.28602  1.0000
  O   O1307     1.0  0.21398  0.21398  0.69777  1.0000
  O   O1308     1.0  0.71398  0.71398  0.19777  1.0000
  O   O1309     1.0  0.69776  0.21398  0.21398  1.0000
  O   O1310     1.0  0.19776  0.71398  0.71398  1.0000
  O   O1311     1.0  0.78602  0.30223  0.21398  1.0000
  O   O1312     1.0  0.28602  0.80223  0.71398  1.0000
  O   O1313     1.0  0.78602  0.21398  0.30223  1.0000
  O   O1314     1.0  0.28602  0.71398  0.80223  1.0000
  O   O1315     1.0  0.69776  0.21398  0.78602  1.0000
  O   O1316     1.0  0.19776  0.71398  0.28602  1.0000
  O   O1317     1.0  0.78602  0.30224  0.78602  1.0000
  O   O1318     1.0  0.28602  0.80224  0.28602  1.0000
  O   O1319     1.0  0.78602  0.21398  0.69777  1.0000
  O   O1320     1.0  0.28602  0.71398  0.19777  1.0000
  O   O1321     1.0  0.21398  0.69776  0.21398  1.0000
  O   O1322     1.0  0.71398  0.19777  0.71398  1.0000
  O   O1323     1.0  0.30224  0.78602  0.21398  1.0000
  O   O1324     1.0  0.80224  0.28602  0.71398  1.0000
  O   O1325     1.0  0.21398  0.78602  0.30223  1.0000
  O   O1326     1.0  0.71398  0.28602  0.80223  1.0000
  O   O1327     1.0  0.21398  0.69777  0.78602  1.0000
  O   O1328     1.0  0.71398  0.19777  0.28602  1.0000
  O   O1329     1.0  0.30224  0.78602  0.78602  1.0000
  O   O1330     1.0  0.80224  0.28602  0.28602  1.0000
  O   O1331     1.0  0.21398  0.78602  0.69776  1.0000
  O   O1332     1.0  0.71398  0.28602  0.19776  1.0000
  O   O1333     1.0  0.69776  0.78602  0.78602  1.0000
  O   O1334     1.0  0.19776  0.28602  0.28602  1.0000
  O   O1335     1.0  0.78602  0.69776  0.78602  1.0000
  O   O1336     1.0  0.28602  0.19777  0.28602  1.0000
  O   O1337     1.0  0.78602  0.78602  0.69777  1.0000
  O   O1338     1.0  0.28602  0.28602  0.19777  1.0000
  O   O1339     1.0  0.69776  0.78602  0.21398  1.0000
  O   O1340     1.0  0.19776  0.28602  0.71398  1.0000
  O   O1341     1.0  0.78602  0.69777  0.21398  1.0000
  O   O1342     1.0  0.28602  0.19777  0.71398  1.0000
  O   O1343     1.0  0.78602  0.78602  0.30223  1.0000
  O   O1344     1.0  0.28602  0.28602  0.80223  1.0000
  Si  Si1       1.0  0.31295  0.25012  0.09820  1.0000
  Si  Si2       1.0  0.81295  0.75012  0.59820  1.0000
  Si  Si3       1.0  0.09820  0.31295  0.25012  1.0000
  Si  Si4       1.0  0.59820  0.81295  0.75012  1.0000
  Si  Si5       1.0  0.25012  0.09820  0.31295  1.0000
  Si  Si6       1.0  0.75012  0.59820  0.81295  1.0000
  Si  Si7       1.0  0.31295  0.25012  0.90180  1.0000
  Si  Si8       1.0  0.81295  0.75012  0.40180  1.0000
  Si  Si9       1.0  0.09820  0.31295  0.74988  1.0000
  Si  Si10      1.0  0.59820  0.81295  0.24988  1.0000
  Si  Si11      1.0  0.25012  0.09820  0.68705  1.0000
  Si  Si12      1.0  0.75012  0.59820  0.18705  1.0000
  Si  Si13      1.0  0.68705  0.25012  0.09820  1.0000
  Si  Si14      1.0  0.18705  0.75012  0.59820  1.0000
  Si  Si15      1.0  0.90180  0.31295  0.25012  1.0000
  Si  Si16      1.0  0.40180  0.81295  0.75012  1.0000
  Si  Si17      1.0  0.74988  0.09820  0.31295  1.0000
  Si  Si18      1.0  0.24988  0.59820  0.81295  1.0000
  Si  Si19      1.0  0.68705  0.25012  0.90180  1.0000
  Si  Si20      1.0  0.18705  0.75012  0.40180  1.0000
  Si  Si21      1.0  0.90180  0.31295  0.74988  1.0000
  Si  Si22      1.0  0.40180  0.81295  0.24988  1.0000
  Si  Si23      1.0  0.74988  0.09820  0.68705  1.0000
  Si  Si24      1.0  0.24988  0.59820  0.18705  1.0000
  Si  Si25      1.0  0.25012  0.31295  0.09820  1.0000
  Si  Si26      1.0  0.75012  0.81295  0.59820  1.0000
  Si  Si27      1.0  0.31295  0.09820  0.25012  1.0000
  Si  Si28      1.0  0.81295  0.59820  0.75012  1.0000
  Si  Si29      1.0  0.09820  0.25012  0.31295  1.0000
  Si  Si30      1.0  0.59820  0.75012  0.81295  1.0000
  Si  Si31      1.0  0.25012  0.31295  0.90180  1.0000
  Si  Si32      1.0  0.75012  0.81295  0.40180  1.0000
  Si  Si33      1.0  0.31295  0.09820  0.74988  1.0000
  Si  Si34      1.0  0.81295  0.59820  0.24988  1.0000
  Si  Si35      1.0  0.09820  0.25012  0.68705  1.0000
  Si  Si36      1.0  0.59820  0.75012  0.18705  1.0000
  Si  Si37      1.0  0.25012  0.68705  0.09820  1.0000
  Si  Si38      1.0  0.75012  0.18705  0.59820  1.0000
  Si  Si39      1.0  0.31295  0.90180  0.25012  1.0000
  Si  Si40      1.0  0.81295  0.40180  0.75012  1.0000
  Si  Si41      1.0  0.09820  0.74988  0.31295  1.0000
  Si  Si42      1.0  0.59820  0.24988  0.81295  1.0000
  Si  Si43      1.0  0.25012  0.68705  0.90180  1.0000
  Si  Si44      1.0  0.75012  0.18705  0.40180  1.0000
  Si  Si45      1.0  0.31295  0.90180  0.74988  1.0000
  Si  Si46      1.0  0.81295  0.40180  0.24988  1.0000
  Si  Si47      1.0  0.09820  0.74988  0.68705  1.0000
  Si  Si48      1.0  0.59820  0.24988  0.18705  1.0000
  Si  Si49      1.0  0.68705  0.74988  0.90180  1.0000
  Si  Si50      1.0  0.18705  0.24988  0.40180  1.0000
  Si  Si51      1.0  0.90180  0.68705  0.74988  1.0000
  Si  Si52      1.0  0.40180  0.18705  0.24988  1.0000
  Si  Si53      1.0  0.74988  0.90180  0.68705  1.0000
  Si  Si54      1.0  0.24988  0.40180  0.18705  1.0000
  Si  Si55      1.0  0.68705  0.74988  0.09820  1.0000
  Si  Si56      1.0  0.18705  0.24988  0.59820  1.0000
  Si  Si57      1.0  0.90180  0.68705  0.25012  1.0000
  Si  Si58      1.0  0.40180  0.18705  0.75012  1.0000
  Si  Si59      1.0  0.74988  0.90180  0.31295  1.0000
  Si  Si60      1.0  0.24988  0.40180  0.81295  1.0000
  Si  Si61      1.0  0.31295  0.74988  0.90180  1.0000
  Si  Si62      1.0  0.81295  0.24988  0.40180  1.0000
  Si  Si63      1.0  0.09820  0.68705  0.74988  1.0000
  Si  Si64      1.0  0.59820  0.18705  0.24988  1.0000
  Si  Si65      1.0  0.25012  0.90180  0.68705  1.0000
  Si  Si66      1.0  0.75012  0.40180  0.18705  1.0000
  Si  Si67      1.0  0.31295  0.74988  0.09820  1.0000
  Si  Si68      1.0  0.81295  0.24988  0.59820  1.0000
  Si  Si69      1.0  0.09820  0.68705  0.25012  1.0000
  Si  Si70      1.0  0.59820  0.18705  0.75012  1.0000
  Si  Si71      1.0  0.25012  0.90180  0.31295  1.0000
  Si  Si72      1.0  0.75012  0.40180  0.81295  1.0000
  Si  Si73      1.0  0.74988  0.68705  0.90180  1.0000
  Si  Si74      1.0  0.24988  0.18705  0.40180  1.0000
  Si  Si75      1.0  0.68705  0.90180  0.74988  1.0000
  Si  Si76      1.0  0.18705  0.40180  0.24988  1.0000
  Si  Si77      1.0  0.90180  0.74988  0.68705  1.0000
  Si  Si78      1.0  0.40180  0.24988  0.18705  1.0000
  Si  Si79      1.0  0.74988  0.68705  0.09820  1.0000
  Si  Si80      1.0  0.24988  0.18705  0.59820  1.0000
  Si  Si81      1.0  0.68705  0.90180  0.25012  1.0000
  Si  Si82      1.0  0.18705  0.40180  0.75012  1.0000
  Si  Si83      1.0  0.90180  0.74988  0.31295  1.0000
  Si  Si84      1.0  0.40180  0.24988  0.81295  1.0000
  Si  Si85      1.0  0.74988  0.31295  0.90180  1.0000
  Si  Si86      1.0  0.24988  0.81295  0.40180  1.0000
  Si  Si87      1.0  0.68705  0.09820  0.74988  1.0000
  Si  Si88      1.0  0.18705  0.59820  0.24988  1.0000
  Si  Si89      1.0  0.90180  0.25012  0.68705  1.0000
  Si  Si90      1.0  0.40180  0.75012  0.18705  1.0000
  Si  Si91      1.0  0.74988  0.31295  0.09820  1.0000
  Si  Si92      1.0  0.24988  0.81295  0.59820  1.0000
  Si  Si93      1.0  0.68705  0.09820  0.25012  1.0000
  Si  Si94      1.0  0.18705  0.59820  0.75012  1.0000
  Si  Si95      1.0  0.90180  0.25012  0.31295  1.0000
  Si  Si96      1.0  0.40180  0.75012  0.81295  1.0000
  Si  Si97      1.0  0.45566  0.10730  0.04454  1.0000
  Si  Si98      1.0  0.95566  0.60730  0.54454  1.0000
  Si  Si99      1.0  0.04454  0.45566  0.10730  1.0000
  Si  Si100     1.0  0.54454  0.95566  0.60730  1.0000
  Si  Si101     1.0  0.10730  0.04454  0.45566  1.0000
  Si  Si102     1.0  0.60730  0.54454  0.95566  1.0000
  Si  Si103     1.0  0.45566  0.10730  0.95546  1.0000
  Si  Si104     1.0  0.95566  0.60730  0.45546  1.0000
  Si  Si105     1.0  0.04454  0.45566  0.89270  1.0000
  Si  Si106     1.0  0.54454  0.95566  0.39270  1.0000
  Si  Si107     1.0  0.10730  0.04454  0.54434  1.0000
  Si  Si108     1.0  0.60730  0.54454  0.04434  1.0000
  Si  Si109     1.0  0.54434  0.10730  0.04454  1.0000
  Si  Si110     1.0  0.04434  0.60730  0.54454  1.0000
  Si  Si111     1.0  0.95546  0.45566  0.10730  1.0000
  Si  Si112     1.0  0.45546  0.95566  0.60730  1.0000
  Si  Si113     1.0  0.89270  0.04454  0.45566  1.0000
  Si  Si114     1.0  0.39270  0.54454  0.95566  1.0000
  Si  Si115     1.0  0.54434  0.10730  0.95546  1.0000
  Si  Si116     1.0  0.04434  0.60730  0.45546  1.0000
  Si  Si117     1.0  0.95546  0.45566  0.89270  1.0000
  Si  Si118     1.0  0.45546  0.95566  0.39270  1.0000
  Si  Si119     1.0  0.89270  0.04454  0.54434  1.0000
  Si  Si120     1.0  0.39270  0.54454  0.04434  1.0000
  Si  Si121     1.0  0.10730  0.45566  0.04454  1.0000
  Si  Si122     1.0  0.60730  0.95566  0.54454  1.0000
  Si  Si123     1.0  0.45566  0.04454  0.10730  1.0000
  Si  Si124     1.0  0.95566  0.54454  0.60730  1.0000
  Si  Si125     1.0  0.04454  0.10730  0.45566  1.0000
  Si  Si126     1.0  0.54454  0.60730  0.95566  1.0000
  Si  Si127     1.0  0.10730  0.45566  0.95546  1.0000
  Si  Si128     1.0  0.60730  0.95566  0.45546  1.0000
  Si  Si129     1.0  0.45566  0.04454  0.89270  1.0000
  Si  Si130     1.0  0.95566  0.54454  0.39270  1.0000
  Si  Si131     1.0  0.04454  0.10730  0.54434  1.0000
  Si  Si132     1.0  0.54454  0.60730  0.04434  1.0000
  Si  Si133     1.0  0.10730  0.54434  0.04454  1.0000
  Si  Si134     1.0  0.60730  0.04434  0.54454  1.0000
  Si  Si135     1.0  0.45566  0.95546  0.10730  1.0000
  Si  Si136     1.0  0.95566  0.45546  0.60730  1.0000
  Si  Si137     1.0  0.04454  0.89270  0.45566  1.0000
  Si  Si138     1.0  0.54454  0.39270  0.95566  1.0000
  Si  Si139     1.0  0.10730  0.54434  0.95546  1.0000
  Si  Si140     1.0  0.60730  0.04434  0.45546  1.0000
  Si  Si141     1.0  0.45566  0.95546  0.89270  1.0000
  Si  Si142     1.0  0.95566  0.45546  0.39270  1.0000
  Si  Si143     1.0  0.04454  0.89270  0.54434  1.0000
  Si  Si144     1.0  0.54454  0.39270  0.04434  1.0000
  Si  Si145     1.0  0.54434  0.89270  0.95546  1.0000
  Si  Si146     1.0  0.04434  0.39270  0.45546  1.0000
  Si  Si147     1.0  0.95546  0.54434  0.89270  1.0000
  Si  Si148     1.0  0.45546  0.04434  0.39270  1.0000
  Si  Si149     1.0  0.89270  0.95546  0.54434  1.0000
  Si  Si150     1.0  0.39270  0.45546  0.04434  1.0000
  Si  Si151     1.0  0.54434  0.89270  0.04454  1.0000
  Si  Si152     1.0  0.04434  0.39270  0.54454  1.0000
  Si  Si153     1.0  0.95546  0.54434  0.10730  1.0000
  Si  Si154     1.0  0.45546  0.04434  0.60730  1.0000
  Si  Si155     1.0  0.89270  0.95546  0.45566  1.0000
  Si  Si156     1.0  0.39270  0.45546  0.95566  1.0000
  Si  Si157     1.0  0.45566  0.89270  0.95546  1.0000
  Si  Si158     1.0  0.95566  0.39270  0.45546  1.0000
  Si  Si159     1.0  0.04454  0.54434  0.89270  1.0000
  Si  Si160     1.0  0.54454  0.04434  0.39270  1.0000
  Si  Si161     1.0  0.10730  0.95546  0.54434  1.0000
  Si  Si162     1.0  0.60730  0.45546  0.04434  1.0000
  Si  Si163     1.0  0.45566  0.89270  0.04454  1.0000
  Si  Si164     1.0  0.95566  0.39270  0.54454  1.0000
  Si  Si165     1.0  0.04454  0.54434  0.10730  1.0000
  Si  Si166     1.0  0.54454  0.04434  0.60730  1.0000
  Si  Si167     1.0  0.10730  0.95546  0.45566  1.0000
  Si  Si168     1.0  0.60730  0.45546  0.95566  1.0000
  Si  Si169     1.0  0.89270  0.54434  0.95546  1.0000
  Si  Si170     1.0  0.39270  0.04434  0.45546  1.0000
  Si  Si171     1.0  0.54434  0.95546  0.89270  1.0000
  Si  Si172     1.0  0.04434  0.45546  0.39270  1.0000
  Si  Si173     1.0  0.95546  0.89270  0.54434  1.0000
  Si  Si174     1.0  0.45546  0.39270  0.04434  1.0000
  Si  Si175     1.0  0.89270  0.54434  0.04454  1.0000
  Si  Si176     1.0  0.39270  0.04434  0.54454  1.0000
  Si  Si177     1.0  0.54434  0.95546  0.10730  1.0000
  Si  Si178     1.0  0.04434  0.45546  0.60730  1.0000
  Si  Si179     1.0  0.95546  0.89270  0.45566  1.0000
  Si  Si180     1.0  0.45546  0.39270  0.95566  1.0000
  Si  Si181     1.0  0.89270  0.45566  0.95546  1.0000
  Si  Si182     1.0  0.39270  0.95566  0.45546  1.0000
  Si  Si183     1.0  0.54434  0.04454  0.89270  1.0000
  Si  Si184     1.0  0.04434  0.54454  0.39270  1.0000
  Si  Si185     1.0  0.95546  0.10730  0.54434  1.0000
  Si  Si186     1.0  0.45546  0.60730  0.04434  1.0000
  Si  Si187     1.0  0.89270  0.45566  0.04454  1.0000
  Si  Si188     1.0  0.39270  0.95566  0.54454  1.0000
  Si  Si189     1.0  0.54434  0.04454  0.10730  1.0000
  Si  Si190     1.0  0.04434  0.54454  0.60730  1.0000
  Si  Si191     1.0  0.95546  0.10730  0.45566  1.0000
  Si  Si192     1.0  0.45546  0.60730  0.95566  1.0000
  Si  Si193     1.0  0.40177  0.17828  0.04470  1.0000
  Si  Si194     1.0  0.90177  0.67828  0.54470  1.0000
  Si  Si195     1.0  0.04470  0.40177  0.17828  1.0000
  Si  Si196     1.0  0.54470  0.90177  0.67828  1.0000
  Si  Si197     1.0  0.17828  0.04470  0.40177  1.0000
  Si  Si198     1.0  0.67828  0.54470  0.90177  1.0000
  Si  Si199     1.0  0.40177  0.17828  0.95530  1.0000
  Si  Si200     1.0  0.90177  0.67828  0.45530  1.0000
  Si  Si201     1.0  0.04470  0.40177  0.82172  1.0000
  Si  Si202     1.0  0.54470  0.90177  0.32172  1.0000
  Si  Si203     1.0  0.17828  0.04470  0.59823  1.0000
  Si  Si204     1.0  0.67828  0.54470  0.09823  1.0000
  Si  Si205     1.0  0.59823  0.17828  0.04470  1.0000
  Si  Si206     1.0  0.09823  0.67828  0.54470  1.0000
  Si  Si207     1.0  0.95530  0.40177  0.17828  1.0000
  Si  Si208     1.0  0.45530  0.90177  0.67828  1.0000
  Si  Si209     1.0  0.82172  0.04470  0.40177  1.0000
  Si  Si210     1.0  0.32172  0.54470  0.90177  1.0000
  Si  Si211     1.0  0.59823  0.17828  0.95530  1.0000
  Si  Si212     1.0  0.09823  0.67828  0.45530  1.0000
  Si  Si213     1.0  0.95530  0.40177  0.82172  1.0000
  Si  Si214     1.0  0.45530  0.90177  0.32172  1.0000
  Si  Si215     1.0  0.82172  0.04470  0.59823  1.0000
  Si  Si216     1.0  0.32172  0.54470  0.09823  1.0000
  Si  Si217     1.0  0.17828  0.40177  0.04470  1.0000
  Si  Si218     1.0  0.67828  0.90177  0.54470  1.0000
  Si  Si219     1.0  0.40177  0.04470  0.17828  1.0000
  Si  Si220     1.0  0.90177  0.54470  0.67828  1.0000
  Si  Si221     1.0  0.04470  0.17828  0.40177  1.0000
  Si  Si222     1.0  0.54470  0.67828  0.90177  1.0000
  Si  Si223     1.0  0.17828  0.40177  0.95530  1.0000
  Si  Si224     1.0  0.67828  0.90177  0.45530  1.0000
  Si  Si225     1.0  0.40177  0.04470  0.82172  1.0000
  Si  Si226     1.0  0.90177  0.54470  0.32172  1.0000
  Si  Si227     1.0  0.04470  0.17828  0.59823  1.0000
  Si  Si228     1.0  0.54470  0.67828  0.09823  1.0000
  Si  Si229     1.0  0.17828  0.59823  0.04470  1.0000
  Si  Si230     1.0  0.67828  0.09823  0.54470  1.0000
  Si  Si231     1.0  0.40177  0.95530  0.17828  1.0000
  Si  Si232     1.0  0.90177  0.45530  0.67828  1.0000
  Si  Si233     1.0  0.04470  0.82172  0.40177  1.0000
  Si  Si234     1.0  0.54470  0.32172  0.90177  1.0000
  Si  Si235     1.0  0.17828  0.59823  0.95530  1.0000
  Si  Si236     1.0  0.67828  0.09823  0.45530  1.0000
  Si  Si237     1.0  0.40177  0.95530  0.82172  1.0000
  Si  Si238     1.0  0.90177  0.45530  0.32172  1.0000
  Si  Si239     1.0  0.04470  0.82172  0.59823  1.0000
  Si  Si240     1.0  0.54470  0.32172  0.09823  1.0000
  Si  Si241     1.0  0.59823  0.82172  0.95530  1.0000
  Si  Si242     1.0  0.09823  0.32172  0.45530  1.0000
  Si  Si243     1.0  0.95530  0.59823  0.82172  1.0000
  Si  Si244     1.0  0.45530  0.09823  0.32172  1.0000
  Si  Si245     1.0  0.82172  0.95530  0.59823  1.0000
  Si  Si246     1.0  0.32172  0.45530  0.09823  1.0000
  Si  Si247     1.0  0.59823  0.82172  0.04470  1.0000
  Si  Si248     1.0  0.09823  0.32172  0.54470  1.0000
  Si  Si249     1.0  0.95530  0.59823  0.17828  1.0000
  Si  Si250     1.0  0.45530  0.09823  0.67828  1.0000
  Si  Si251     1.0  0.82172  0.95530  0.40177  1.0000
  Si  Si252     1.0  0.32172  0.45530  0.90177  1.0000
  Si  Si253     1.0  0.40177  0.82172  0.95530  1.0000
  Si  Si254     1.0  0.90177  0.32172  0.45530  1.0000
  Si  Si255     1.0  0.04470  0.59823  0.82172  1.0000
  Si  Si256     1.0  0.54470  0.09823  0.32172  1.0000
  Si  Si257     1.0  0.17828  0.95530  0.59823  1.0000
  Si  Si258     1.0  0.67828  0.45530  0.09823  1.0000
  Si  Si259     1.0  0.40177  0.82172  0.04470  1.0000
  Si  Si260     1.0  0.90177  0.32172  0.54470  1.0000
  Si  Si261     1.0  0.04470  0.59823  0.17828  1.0000
  Si  Si262     1.0  0.54470  0.09823  0.67828  1.0000
  Si  Si263     1.0  0.17828  0.95530  0.40177  1.0000
  Si  Si264     1.0  0.67828  0.45530  0.90177  1.0000
  Si  Si265     1.0  0.82172  0.59823  0.95530  1.0000
  Si  Si266     1.0  0.32172  0.09823  0.45530  1.0000
  Si  Si267     1.0  0.59823  0.95530  0.82172  1.0000
  Si  Si268     1.0  0.09823  0.45530  0.32172  1.0000
  Si  Si269     1.0  0.95530  0.82172  0.59823  1.0000
  Si  Si270     1.0  0.45530  0.32172  0.09823  1.0000
  Si  Si271     1.0  0.82172  0.59823  0.04470  1.0000
  Si  Si272     1.0  0.32172  0.09823  0.54470  1.0000
  Si  Si273     1.0  0.59823  0.95530  0.17828  1.0000
  Si  Si274     1.0  0.09823  0.45530  0.67828  1.0000
  Si  Si275     1.0  0.95530  0.82172  0.40177  1.0000
  Si  Si276     1.0  0.45530  0.32172  0.90177  1.0000
  Si  Si277     1.0  0.82172  0.40177  0.95530  1.0000
  Si  Si278     1.0  0.32172  0.90177  0.45530  1.0000
  Si  Si279     1.0  0.59823  0.04470  0.82172  1.0000
  Si  Si280     1.0  0.09823  0.54470  0.32172  1.0000
  Si  Si281     1.0  0.95530  0.17828  0.59823  1.0000
  Si  Si282     1.0  0.45530  0.67828  0.09823  1.0000
  Si  Si283     1.0  0.82172  0.40177  0.04470  1.0000
  Si  Si284     1.0  0.32172  0.90177  0.54470  1.0000
  Si  Si285     1.0  0.59823  0.04470  0.17828  1.0000
  Si  Si286     1.0  0.09823  0.54470  0.67828  1.0000
  Si  Si287     1.0  0.95530  0.17828  0.40177  1.0000
  Si  Si288     1.0  0.45530  0.67828  0.90177  1.0000
  Si  Si289     1.0  0.31240  0.17866  0.04471  1.0000
  Si  Si290     1.0  0.81240  0.67866  0.54471  1.0000
  Si  Si291     1.0  0.04471  0.31240  0.17866  1.0000
  Si  Si292     1.0  0.54471  0.81240  0.67866  1.0000
  Si  Si293     1.0  0.17866  0.04471  0.31240  1.0000
  Si  Si294     1.0  0.67866  0.54471  0.81240  1.0000
  Si  Si295     1.0  0.31240  0.17866  0.95529  1.0000
  Si  Si296     1.0  0.81240  0.67866  0.45529  1.0000
  Si  Si297     1.0  0.04471  0.31240  0.82134  1.0000
  Si  Si298     1.0  0.54471  0.81240  0.32134  1.0000
  Si  Si299     1.0  0.17866  0.04471  0.68760  1.0000
  Si  Si300     1.0  0.67866  0.54471  0.18760  1.0000
  Si  Si301     1.0  0.68760  0.17866  0.04471  1.0000
  Si  Si302     1.0  0.18760  0.67866  0.54471  1.0000
  Si  Si303     1.0  0.95529  0.31240  0.17866  1.0000
  Si  Si304     1.0  0.45529  0.81240  0.67866  1.0000
  Si  Si305     1.0  0.82134  0.04471  0.31240  1.0000
  Si  Si306     1.0  0.32134  0.54471  0.81240  1.0000
  Si  Si307     1.0  0.68760  0.17866  0.95529  1.0000
  Si  Si308     1.0  0.18760  0.67866  0.45529  1.0000
  Si  Si309     1.0  0.95529  0.31240  0.82134  1.0000
  Si  Si310     1.0  0.45529  0.81240  0.32134  1.0000
  Si  Si311     1.0  0.82134  0.04471  0.68760  1.0000
  Si  Si312     1.0  0.32134  0.54471  0.18760  1.0000
  Si  Si313     1.0  0.17866  0.31240  0.04471  1.0000
  Si  Si314     1.0  0.67866  0.81240  0.54471  1.0000
  Si  Si315     1.0  0.31240  0.04471  0.17866  1.0000
  Si  Si316     1.0  0.81240  0.54471  0.67866  1.0000
  Si  Si317     1.0  0.04471  0.17866  0.31240  1.0000
  Si  Si318     1.0  0.54471  0.67866  0.81240  1.0000
  Si  Si319     1.0  0.17866  0.31240  0.95529  1.0000
  Si  Si320     1.0  0.67866  0.81240  0.45529  1.0000
  Si  Si321     1.0  0.31240  0.04471  0.82134  1.0000
  Si  Si322     1.0  0.81240  0.54471  0.32134  1.0000
  Si  Si323     1.0  0.04471  0.17866  0.68760  1.0000
  Si  Si324     1.0  0.54471  0.67866  0.18760  1.0000
  Si  Si325     1.0  0.17866  0.68760  0.04471  1.0000
  Si  Si326     1.0  0.67866  0.18760  0.54471  1.0000
  Si  Si327     1.0  0.31240  0.95529  0.17866  1.0000
  Si  Si328     1.0  0.81240  0.45529  0.67866  1.0000
  Si  Si329     1.0  0.04471  0.82134  0.31240  1.0000
  Si  Si330     1.0  0.54471  0.32134  0.81240  1.0000
  Si  Si331     1.0  0.17866  0.68760  0.95529  1.0000
  Si  Si332     1.0  0.67866  0.18760  0.45529  1.0000
  Si  Si333     1.0  0.31240  0.95529  0.82134  1.0000
  Si  Si334     1.0  0.81240  0.45529  0.32134  1.0000
  Si  Si335     1.0  0.04471  0.82134  0.68760  1.0000
  Si  Si336     1.0  0.54471  0.32134  0.18760  1.0000
  Si  Si337     1.0  0.68760  0.82134  0.95529  1.0000
  Si  Si338     1.0  0.18760  0.32134  0.45529  1.0000
  Si  Si339     1.0  0.95529  0.68760  0.82134  1.0000
  Si  Si340     1.0  0.45529  0.18760  0.32134  1.0000
  Si  Si341     1.0  0.82134  0.95529  0.68760  1.0000
  Si  Si342     1.0  0.32134  0.45529  0.18760  1.0000
  Si  Si343     1.0  0.68760  0.82134  0.04471  1.0000
  Si  Si344     1.0  0.18760  0.32134  0.54471  1.0000
  Si  Si345     1.0  0.95529  0.68760  0.17866  1.0000
  Si  Si346     1.0  0.45529  0.18760  0.67866  1.0000
  Si  Si347     1.0  0.82134  0.95529  0.31240  1.0000
  Si  Si348     1.0  0.32134  0.45529  0.81240  1.0000
  Si  Si349     1.0  0.31240  0.82134  0.95529  1.0000
  Si  Si350     1.0  0.81240  0.32134  0.45529  1.0000
  Si  Si351     1.0  0.04471  0.68760  0.82134  1.0000
  Si  Si352     1.0  0.54471  0.18760  0.32134  1.0000
  Si  Si353     1.0  0.17866  0.95529  0.68760  1.0000
  Si  Si354     1.0  0.67866  0.45529  0.18760  1.0000
  Si  Si355     1.0  0.31240  0.82134  0.04471  1.0000
  Si  Si356     1.0  0.81240  0.32134  0.54471  1.0000
  Si  Si357     1.0  0.04471  0.68760  0.17866  1.0000
  Si  Si358     1.0  0.54471  0.18760  0.67866  1.0000
  Si  Si359     1.0  0.17866  0.95529  0.31240  1.0000
  Si  Si360     1.0  0.67866  0.45529  0.81240  1.0000
  Si  Si361     1.0  0.82134  0.68760  0.95529  1.0000
  Si  Si362     1.0  0.32134  0.18760  0.45529  1.0000
  Si  Si363     1.0  0.68760  0.95529  0.82134  1.0000
  Si  Si364     1.0  0.18760  0.45529  0.32134  1.0000
  Si  Si365     1.0  0.95529  0.82134  0.68760  1.0000
  Si  Si366     1.0  0.45529  0.32134  0.18760  1.0000
  Si  Si367     1.0  0.82134  0.68760  0.04471  1.0000
  Si  Si368     1.0  0.32134  0.18760  0.54471  1.0000
  Si  Si369     1.0  0.68760  0.95529  0.17866  1.0000
  Si  Si370     1.0  0.18760  0.45529  0.67866  1.0000
  Si  Si371     1.0  0.95529  0.82134  0.31240  1.0000
  Si  Si372     1.0  0.45529  0.32134  0.81240  1.0000
  Si  Si373     1.0  0.82134  0.31240  0.95529  1.0000
  Si  Si374     1.0  0.32134  0.81240  0.45529  1.0000
  Si  Si375     1.0  0.68760  0.04471  0.82134  1.0000
  Si  Si376     1.0  0.18760  0.54471  0.32134  1.0000
  Si  Si377     1.0  0.95529  0.17866  0.68760  1.0000
  Si  Si378     1.0  0.45529  0.67866  0.18760  1.0000
  Si  Si379     1.0  0.82134  0.31240  0.04471  1.0000
  Si  Si380     1.0  0.32134  0.81240  0.54471  1.0000
  Si  Si381     1.0  0.68760  0.04471  0.17866  1.0000
  Si  Si382     1.0  0.18760  0.54471  0.67866  1.0000
  Si  Si383     1.0  0.95529  0.17866  0.31240  1.0000
  Si  Si384     1.0  0.45529  0.67866  0.81240  1.0000
  Si  Si385     1.0  0.25903  0.10729  0.04456  1.0000
  Si  Si386     1.0  0.75903  0.60729  0.54456  1.0000
  Si  Si387     1.0  0.04456  0.25903  0.10728  1.0000
  Si  Si388     1.0  0.54456  0.75903  0.60728  1.0000
  Si  Si389     1.0  0.10729  0.04456  0.25903  1.0000
  Si  Si390     1.0  0.60729  0.54456  0.75903  1.0000
  Si  Si391     1.0  0.25903  0.10728  0.95544  1.0000
  Si  Si392     1.0  0.75903  0.60728  0.45544  1.0000
  Si  Si393     1.0  0.04456  0.25903  0.89272  1.0000
  Si  Si394     1.0  0.54456  0.75903  0.39272  1.0000
  Si  Si395     1.0  0.10728  0.04456  0.74097  1.0000
  Si  Si396     1.0  0.60728  0.54456  0.24097  1.0000
  Si  Si397     1.0  0.74097  0.10729  0.04456  1.0000
  Si  Si398     1.0  0.24097  0.60729  0.54456  1.0000
  Si  Si399     1.0  0.95544  0.25903  0.10728  1.0000
  Si  Si400     1.0  0.45544  0.75903  0.60728  1.0000
  Si  Si401     1.0  0.89272  0.04456  0.25903  1.0000
  Si  Si402     1.0  0.39272  0.54456  0.75903  1.0000
  Si  Si403     1.0  0.74097  0.10728  0.95544  1.0000
  Si  Si404     1.0  0.24097  0.60728  0.45544  1.0000
  Si  Si405     1.0  0.95544  0.25903  0.89272  1.0000
  Si  Si406     1.0  0.45544  0.75903  0.39272  1.0000
  Si  Si407     1.0  0.89272  0.04456  0.74097  1.0000
  Si  Si408     1.0  0.39272  0.54456  0.24097  1.0000
  Si  Si409     1.0  0.10728  0.25903  0.04456  1.0000
  Si  Si410     1.0  0.60728  0.75903  0.54456  1.0000
  Si  Si411     1.0  0.25903  0.04456  0.10728  1.0000
  Si  Si412     1.0  0.75903  0.54456  0.60728  1.0000
  Si  Si413     1.0  0.04456  0.10728  0.25903  1.0000
  Si  Si414     1.0  0.54456  0.60728  0.75903  1.0000
  Si  Si415     1.0  0.10728  0.25903  0.95544  1.0000
  Si  Si416     1.0  0.60728  0.75903  0.45544  1.0000
  Si  Si417     1.0  0.25903  0.04456  0.89272  1.0000
  Si  Si418     1.0  0.75903  0.54456  0.39272  1.0000
  Si  Si419     1.0  0.04456  0.10728  0.74097  1.0000
  Si  Si420     1.0  0.54456  0.60728  0.24097  1.0000
  Si  Si421     1.0  0.10728  0.74097  0.04456  1.0000
  Si  Si422     1.0  0.60728  0.24097  0.54456  1.0000
  Si  Si423     1.0  0.25903  0.95544  0.10728  1.0000
  Si  Si424     1.0  0.75903  0.45544  0.60728  1.0000
  Si  Si425     1.0  0.04456  0.89272  0.25903  1.0000
  Si  Si426     1.0  0.54456  0.39272  0.75903  1.0000
  Si  Si427     1.0  0.10729  0.74097  0.95544  1.0000
  Si  Si428     1.0  0.60729  0.24097  0.45544  1.0000
  Si  Si429     1.0  0.25903  0.95544  0.89272  1.0000
  Si  Si430     1.0  0.75903  0.45544  0.39272  1.0000
  Si  Si431     1.0  0.04456  0.89272  0.74097  1.0000
  Si  Si432     1.0  0.54456  0.39272  0.24097  1.0000
  Si  Si433     1.0  0.74097  0.89271  0.95544  1.0000
  Si  Si434     1.0  0.24097  0.39271  0.45544  1.0000
  Si  Si435     1.0  0.95544  0.74097  0.89272  1.0000
  Si  Si436     1.0  0.45544  0.24097  0.39272  1.0000
  Si  Si437     1.0  0.89271  0.95544  0.74097  1.0000
  Si  Si438     1.0  0.39271  0.45544  0.24097  1.0000
  Si  Si439     1.0  0.74097  0.89272  0.04456  1.0000
  Si  Si440     1.0  0.24097  0.39272  0.54456  1.0000
  Si  Si441     1.0  0.95544  0.74097  0.10728  1.0000
  Si  Si442     1.0  0.45544  0.24097  0.60728  1.0000
  Si  Si443     1.0  0.89272  0.95544  0.25903  1.0000
  Si  Si444     1.0  0.39272  0.45544  0.75903  1.0000
  Si  Si445     1.0  0.25903  0.89271  0.95544  1.0000
  Si  Si446     1.0  0.75903  0.39271  0.45544  1.0000
  Si  Si447     1.0  0.04456  0.74097  0.89272  1.0000
  Si  Si448     1.0  0.54456  0.24097  0.39272  1.0000
  Si  Si449     1.0  0.10728  0.95544  0.74097  1.0000
  Si  Si450     1.0  0.60728  0.45544  0.24097  1.0000
  Si  Si451     1.0  0.25903  0.89272  0.04456  1.0000
  Si  Si452     1.0  0.75903  0.39272  0.54456  1.0000
  Si  Si453     1.0  0.04456  0.74097  0.10728  1.0000
  Si  Si454     1.0  0.54456  0.24097  0.60728  1.0000
  Si  Si455     1.0  0.10728  0.95544  0.25903  1.0000
  Si  Si456     1.0  0.60728  0.45544  0.75903  1.0000
  Si  Si457     1.0  0.89272  0.74097  0.95544  1.0000
  Si  Si458     1.0  0.39272  0.24097  0.45544  1.0000
  Si  Si459     1.0  0.74097  0.95544  0.89272  1.0000
  Si  Si460     1.0  0.24097  0.45544  0.39272  1.0000
  Si  Si461     1.0  0.95544  0.89272  0.74097  1.0000
  Si  Si462     1.0  0.45544  0.39272  0.24097  1.0000
  Si  Si463     1.0  0.89272  0.74097  0.04456  1.0000
  Si  Si464     1.0  0.39272  0.24097  0.54456  1.0000
  Si  Si465     1.0  0.74097  0.95544  0.10728  1.0000
  Si  Si466     1.0  0.24097  0.45544  0.60728  1.0000
  Si  Si467     1.0  0.95544  0.89272  0.25903  1.0000
  Si  Si468     1.0  0.45544  0.39272  0.75903  1.0000
  Si  Si469     1.0  0.89272  0.25903  0.95544  1.0000
  Si  Si470     1.0  0.39272  0.75903  0.45544  1.0000
  Si  Si471     1.0  0.74097  0.04456  0.89272  1.0000
  Si  Si472     1.0  0.24097  0.54456  0.39272  1.0000
  Si  Si473     1.0  0.95544  0.10728  0.74097  1.0000
  Si  Si474     1.0  0.45544  0.60728  0.24097  1.0000
  Si  Si475     1.0  0.89271  0.25903  0.04456  1.0000
  Si  Si476     1.0  0.39271  0.75903  0.54456  1.0000
  Si  Si477     1.0  0.74097  0.04456  0.10728  1.0000
  Si  Si478     1.0  0.24097  0.54456  0.60728  1.0000
  Si  Si479     1.0  0.95544  0.10728  0.25903  1.0000
  Si  Si480     1.0  0.45544  0.60728  0.75903  1.0000
  Si  Si481     1.0  0.17012  0.10721  0.04435  1.0000
  Si  Si482     1.0  0.67012  0.60721  0.54435  1.0000
  Si  Si483     1.0  0.04435  0.17012  0.10721  1.0000
  Si  Si484     1.0  0.54435  0.67012  0.60721  1.0000
  Si  Si485     1.0  0.10721  0.04435  0.17012  1.0000
  Si  Si486     1.0  0.60721  0.54435  0.67012  1.0000
  Si  Si487     1.0  0.17012  0.10721  0.95565  1.0000
  Si  Si488     1.0  0.67012  0.60721  0.45565  1.0000
  Si  Si489     1.0  0.04435  0.17012  0.89279  1.0000
  Si  Si490     1.0  0.54435  0.67012  0.39279  1.0000
  Si  Si491     1.0  0.10721  0.04435  0.82988  1.0000
  Si  Si492     1.0  0.60721  0.54435  0.32988  1.0000
  Si  Si493     1.0  0.82988  0.10721  0.04435  1.0000
  Si  Si494     1.0  0.32988  0.60721  0.54435  1.0000
  Si  Si495     1.0  0.95565  0.17012  0.10721  1.0000
  Si  Si496     1.0  0.45565  0.67012  0.60721  1.0000
  Si  Si497     1.0  0.89279  0.04435  0.17012  1.0000
  Si  Si498     1.0  0.39279  0.54435  0.67012  1.0000
  Si  Si499     1.0  0.82988  0.10721  0.95565  1.0000
  Si  Si500     1.0  0.32988  0.60721  0.45565  1.0000
  Si  Si501     1.0  0.95565  0.17012  0.89279  1.0000
  Si  Si502     1.0  0.45565  0.67012  0.39279  1.0000
  Si  Si503     1.0  0.89279  0.04435  0.82988  1.0000
  Si  Si504     1.0  0.39279  0.54435  0.32988  1.0000
  Si  Si505     1.0  0.10721  0.17012  0.04435  1.0000
  Si  Si506     1.0  0.60721  0.67012  0.54435  1.0000
  Si  Si507     1.0  0.17012  0.04435  0.10721  1.0000
  Si  Si508     1.0  0.67012  0.54435  0.60721  1.0000
  Si  Si509     1.0  0.04435  0.10721  0.17012  1.0000
  Si  Si510     1.0  0.54435  0.60721  0.67012  1.0000
  Si  Si511     1.0  0.10721  0.17012  0.95565  1.0000
  Si  Si512     1.0  0.60721  0.67012  0.45565  1.0000
  Si  Si513     1.0  0.17012  0.04435  0.89279  1.0000
  Si  Si514     1.0  0.67012  0.54435  0.39279  1.0000
  Si  Si515     1.0  0.04435  0.10721  0.82988  1.0000
  Si  Si516     1.0  0.54435  0.60721  0.32988  1.0000
  Si  Si517     1.0  0.10721  0.82988  0.04435  1.0000
  Si  Si518     1.0  0.60721  0.32988  0.54435  1.0000
  Si  Si519     1.0  0.17012  0.95565  0.10721  1.0000
  Si  Si520     1.0  0.67012  0.45565  0.60721  1.0000
  Si  Si521     1.0  0.04435  0.89279  0.17012  1.0000
  Si  Si522     1.0  0.54435  0.39279  0.67012  1.0000
  Si  Si523     1.0  0.10721  0.82988  0.95565  1.0000
  Si  Si524     1.0  0.60721  0.32988  0.45565  1.0000
  Si  Si525     1.0  0.17012  0.95565  0.89279  1.0000
  Si  Si526     1.0  0.67012  0.45565  0.39279  1.0000
  Si  Si527     1.0  0.04435  0.89279  0.82988  1.0000
  Si  Si528     1.0  0.54435  0.39279  0.32988  1.0000
  Si  Si529     1.0  0.82988  0.89279  0.95565  1.0000
  Si  Si530     1.0  0.32988  0.39279  0.45565  1.0000
  Si  Si531     1.0  0.95565  0.82988  0.89279  1.0000
  Si  Si532     1.0  0.45565  0.32988  0.39279  1.0000
  Si  Si533     1.0  0.89279  0.95565  0.82988  1.0000
  Si  Si534     1.0  0.39279  0.45565  0.32988  1.0000
  Si  Si535     1.0  0.82988  0.89279  0.04435  1.0000
  Si  Si536     1.0  0.32988  0.39279  0.54435  1.0000
  Si  Si537     1.0  0.95565  0.82988  0.10721  1.0000
  Si  Si538     1.0  0.45565  0.32988  0.60721  1.0000
  Si  Si539     1.0  0.89279  0.95565  0.17012  1.0000
  Si  Si540     1.0  0.39279  0.45565  0.67012  1.0000
  Si  Si541     1.0  0.17012  0.89279  0.95565  1.0000
  Si  Si542     1.0  0.67012  0.39279  0.45565  1.0000
  Si  Si543     1.0  0.04435  0.82988  0.89279  1.0000
  Si  Si544     1.0  0.54435  0.32988  0.39279  1.0000
  Si  Si545     1.0  0.10721  0.95565  0.82988  1.0000
  Si  Si546     1.0  0.60721  0.45565  0.32988  1.0000
  Si  Si547     1.0  0.17012  0.89279  0.04435  1.0000
  Si  Si548     1.0  0.67012  0.39279  0.54435  1.0000
  Si  Si549     1.0  0.04435  0.82988  0.10721  1.0000
  Si  Si550     1.0  0.54435  0.32988  0.60721  1.0000
  Si  Si551     1.0  0.10721  0.95565  0.17012  1.0000
  Si  Si552     1.0  0.60721  0.45565  0.67012  1.0000
  Si  Si553     1.0  0.89279  0.82988  0.95565  1.0000
  Si  Si554     1.0  0.39279  0.32988  0.45565  1.0000
  Si  Si555     1.0  0.82988  0.95565  0.89279  1.0000
  Si  Si556     1.0  0.32988  0.45565  0.39279  1.0000
  Si  Si557     1.0  0.95565  0.89279  0.82988  1.0000
  Si  Si558     1.0  0.45565  0.39279  0.32988  1.0000
  Si  Si559     1.0  0.89279  0.82988  0.04435  1.0000
  Si  Si560     1.0  0.39279  0.32988  0.54435  1.0000
  Si  Si561     1.0  0.82988  0.95565  0.10721  1.0000
  Si  Si562     1.0  0.32988  0.45565  0.60721  1.0000
  Si  Si563     1.0  0.95565  0.89279  0.17012  1.0000
  Si  Si564     1.0  0.45565  0.39279  0.67012  1.0000
  Si  Si565     1.0  0.89279  0.17012  0.95565  1.0000
  Si  Si566     1.0  0.39279  0.67012  0.45565  1.0000
  Si  Si567     1.0  0.82988  0.04435  0.89279  1.0000
  Si  Si568     1.0  0.32988  0.54435  0.39279  1.0000
  Si  Si569     1.0  0.95565  0.10721  0.82988  1.0000
  Si  Si570     1.0  0.45565  0.60721  0.32988  1.0000
  Si  Si571     1.0  0.89279  0.17012  0.04435  1.0000
  Si  Si572     1.0  0.39279  0.67012  0.54435  1.0000
  Si  Si573     1.0  0.82988  0.04435  0.10721  1.0000
  Si  Si574     1.0  0.32988  0.54435  0.60721  1.0000
  Si  Si575     1.0  0.95565  0.10721  0.17012  1.0000
  Si  Si576     1.0  0.45565  0.60721  0.67012  1.0000
  Si  Si577     1.0  0.31299  0.25000  0.18701  1.0000
  Si  Si578     1.0  0.81299  0.75000  0.68701  1.0000
  Si  Si579     1.0  0.18701  0.31299  0.25000  1.0000
  Si  Si580     1.0  0.68701  0.81299  0.75000  1.0000
  Si  Si581     1.0  0.25000  0.18701  0.31299  1.0000
  Si  Si582     1.0  0.75000  0.68701  0.81299  1.0000
  Si  Si583     1.0  0.31300  0.25000  0.81299  1.0000
  Si  Si584     1.0  0.81299  0.75000  0.31299  1.0000
  Si  Si585     1.0  0.18701  0.31299  0.75000  1.0000
  Si  Si586     1.0  0.68701  0.81299  0.25000  1.0000
  Si  Si587     1.0  0.25000  0.18701  0.68701  1.0000
  Si  Si588     1.0  0.75000  0.68701  0.18701  1.0000
  Si  Si589     1.0  0.68701  0.25000  0.18701  1.0000
  Si  Si590     1.0  0.18701  0.75000  0.68701  1.0000
  Si  Si591     1.0  0.81299  0.31299  0.25000  1.0000
  Si  Si592     1.0  0.31299  0.81299  0.75000  1.0000
  Si  Si593     1.0  0.75000  0.18701  0.31299  1.0000
  Si  Si594     1.0  0.25000  0.68701  0.81299  1.0000
  Si  Si595     1.0  0.68701  0.25000  0.81299  1.0000
  Si  Si596     1.0  0.18701  0.75000  0.31299  1.0000
  Si  Si597     1.0  0.81299  0.31299  0.75000  1.0000
  Si  Si598     1.0  0.31299  0.81299  0.25000  1.0000
  Si  Si599     1.0  0.75000  0.18701  0.68701  1.0000
  Si  Si600     1.0  0.25000  0.68701  0.18701  1.0000
  Si  Si601     1.0  0.25000  0.31299  0.18701  1.0000
  Si  Si602     1.0  0.75000  0.81299  0.68701  1.0000
  Si  Si603     1.0  0.31299  0.18701  0.25000  1.0000
  Si  Si604     1.0  0.81299  0.68701  0.75000  1.0000
  Si  Si605     1.0  0.18700  0.25000  0.31299  1.0000
  Si  Si606     1.0  0.68701  0.75000  0.81299  1.0000
  Si  Si607     1.0  0.25000  0.31299  0.81299  1.0000
  Si  Si608     1.0  0.75000  0.81299  0.31299  1.0000
  Si  Si609     1.0  0.31299  0.18701  0.75000  1.0000
  Si  Si610     1.0  0.81299  0.68701  0.25000  1.0000
  Si  Si611     1.0  0.18700  0.25000  0.68701  1.0000
  Si  Si612     1.0  0.68701  0.75000  0.18701  1.0000
  Si  Si613     1.0  0.31299  0.75000  0.81299  1.0000
  Si  Si614     1.0  0.81299  0.25000  0.31299  1.0000
  Si  Si615     1.0  0.18701  0.68701  0.75000  1.0000
  Si  Si616     1.0  0.68701  0.18701  0.25000  1.0000
  Si  Si617     1.0  0.25000  0.81299  0.68701  1.0000
  Si  Si618     1.0  0.75000  0.31299  0.18701  1.0000
  Si  Si619     1.0  0.31299  0.75000  0.18701  1.0000
  Si  Si620     1.0  0.81299  0.25000  0.68701  1.0000
  Si  Si621     1.0  0.18701  0.68701  0.25000  1.0000
  Si  Si622     1.0  0.68701  0.18701  0.75000  1.0000
  Si  Si623     1.0  0.25000  0.81299  0.31299  1.0000
  Si  Si624     1.0  0.75000  0.31299  0.81299  1.0000
  Si  Si625     1.0  0.40212  0.25000  0.09787  1.0000
  Si  Si626     1.0  0.90213  0.75000  0.59787  1.0000
  Si  Si627     1.0  0.09787  0.40213  0.25000  1.0000
  Si  Si628     1.0  0.59787  0.90213  0.75000  1.0000
  Si  Si629     1.0  0.25000  0.09787  0.40213  1.0000
  Si  Si630     1.0  0.75000  0.59787  0.90213  1.0000
  Si  Si631     1.0  0.40213  0.25000  0.90213  1.0000
  Si  Si632     1.0  0.90213  0.75000  0.40213  1.0000
  Si  Si633     1.0  0.09788  0.40213  0.75000  1.0000
  Si  Si634     1.0  0.59788  0.90213  0.25000  1.0000
  Si  Si635     1.0  0.25000  0.09787  0.59787  1.0000
  Si  Si636     1.0  0.75000  0.59787  0.09787  1.0000
  Si  Si637     1.0  0.59787  0.25000  0.09787  1.0000
  Si  Si638     1.0  0.09787  0.75000  0.59787  1.0000
  Si  Si639     1.0  0.90212  0.40213  0.25000  1.0000
  Si  Si640     1.0  0.40212  0.90213  0.75000  1.0000
  Si  Si641     1.0  0.75000  0.09787  0.40213  1.0000
  Si  Si642     1.0  0.25000  0.59787  0.90213  1.0000
  Si  Si643     1.0  0.59788  0.25000  0.90213  1.0000
  Si  Si644     1.0  0.09787  0.75000  0.40213  1.0000
  Si  Si645     1.0  0.90212  0.40213  0.75000  1.0000
  Si  Si646     1.0  0.40212  0.90213  0.25000  1.0000
  Si  Si647     1.0  0.75000  0.09787  0.59787  1.0000
  Si  Si648     1.0  0.25000  0.59787  0.09787  1.0000
  Si  Si649     1.0  0.25000  0.40213  0.09787  1.0000
  Si  Si650     1.0  0.75000  0.90213  0.59787  1.0000
  Si  Si651     1.0  0.40213  0.09787  0.25000  1.0000
  Si  Si652     1.0  0.90213  0.59787  0.75000  1.0000
  Si  Si653     1.0  0.09788  0.25000  0.40213  1.0000
  Si  Si654     1.0  0.59788  0.75000  0.90213  1.0000
  Si  Si655     1.0  0.25000  0.40213  0.90213  1.0000
  Si  Si656     1.0  0.75000  0.90213  0.40213  1.0000
  Si  Si657     1.0  0.40212  0.09787  0.75000  1.0000
  Si  Si658     1.0  0.90212  0.59787  0.25000  1.0000
  Si  Si659     1.0  0.09787  0.25000  0.59787  1.0000
  Si  Si660     1.0  0.59787  0.75000  0.09787  1.0000
  Si  Si661     1.0  0.40213  0.75000  0.90213  1.0000
  Si  Si662     1.0  0.90213  0.25000  0.40213  1.0000
  Si  Si663     1.0  0.09788  0.59787  0.75000  1.0000
  Si  Si664     1.0  0.59788  0.09787  0.25000  1.0000
  Si  Si665     1.0  0.25000  0.90213  0.59787  1.0000
  Si  Si666     1.0  0.75000  0.40213  0.09787  1.0000
  Si  Si667     1.0  0.40213  0.75000  0.09787  1.0000
  Si  Si668     1.0  0.90212  0.25000  0.59787  1.0000
  Si  Si669     1.0  0.09788  0.59787  0.25000  1.0000
  Si  Si670     1.0  0.59787  0.09787  0.75000  1.0000
  Si  Si671     1.0  0.25000  0.90213  0.40213  1.0000
  Si  Si672     1.0  0.75000  0.40213  0.90213  1.0000
